version 2
run Bitcomplement-25-20120709-20:17:20-24903
attr alg 1
attr buf 8
attr configname Bitcomplement
attr datetime 20120709-20:17:20
attr delta 0.2
attr experiment Bitcomplement
attr ext false
attr inifile altro.ini
attr iterationvars "$buf=8, $ext=false, $ofedge=1, $delta=0.2, $alg=1"
attr iterationvars2 "$buf=8, $ext=false, $ofedge=1, $delta=0.2, $alg=1, $repetition=0"
attr measurement "$buf=8, $ext=false, $ofedge=1, $delta=0.2, $alg=1"
attr network Torus3d_bub
attr ofedge 1
attr processid 24903
attr repetition 0
attr replication #0
attr resultdir altro-results
attr runnumber 25
attr seedset 25

scalar . 	alg 	1
scalar . 	buf 	8
scalar . 	delta 	0.2
scalar . 	ofedge 	1
scalar Torus3d_bub.timer 	#endTime 	0.009565673652188
scalar Torus3d_bub.timer 	#totalHops 	99738856
scalar Torus3d_bub.timer 	#totalPacks 	6291456
scalar Torus3d_bub.timer 	#totalDerouted 	3780591
scalar Torus3d_bub.timer 	#totalOutFlanked 	3780591
scalar Torus3d_bub.timer 	#totalCQRed 	0
scalar Torus3d_bub.timer 	#LB 	0.000786432
scalar Torus3d_bub.timer 	#ratio 	0.082213969302634
statistic Torus3d_bub.timer 	"Hop Times"
field count 6291456
field mean 0.000100155388
field stddev 0.00016955250223471
field sum 630.12321676491
field sqrsum 0.2439773045555
field min 4.16777777e-07
field max 0.002717994444444
bin	-INF	0
bin	0	0
bin	7.12e-08	0
bin	1.424e-07	0
bin	2.136e-07	0
bin	2.848e-07	0
bin	3.56e-07	21
bin	4.272e-07	1253
bin	4.984e-07	8317
bin	5.696e-07	12542
bin	6.408e-07	12936
bin	7.12e-07	13739
bin	7.832e-07	15099
bin	8.544e-07	17665
bin	9.256e-07	20137
bin	9.968e-07	22908
bin	1.068e-06	25807
bin	1.1392e-06	27912
bin	1.2104e-06	30481
bin	1.2816e-06	32764
bin	1.3528e-06	34891
bin	1.424e-06	36614
bin	1.4952e-06	37193
bin	1.5664e-06	36996
bin	1.6376e-06	37287
bin	1.7088e-06	36855
bin	1.78e-06	36601
bin	1.8512e-06	36055
bin	1.9224e-06	35624
bin	1.9936e-06	35138
bin	2.0648e-06	34830
bin	2.136e-06	34547
bin	2.2072e-06	34423
bin	2.2784e-06	34155
bin	2.3496e-06	34027
bin	2.4208e-06	33850
bin	2.492e-06	33869
bin	2.5632e-06	33692
bin	2.6344e-06	33425
bin	2.7056e-06	33802
bin	2.7768e-06	33761
bin	2.848e-06	33515
bin	2.9192e-06	33748
bin	2.9904e-06	34076
bin	3.0616e-06	33940
bin	3.1328e-06	34029
bin	3.204e-06	34149
bin	3.2752e-06	34120
bin	3.3464e-06	33990
bin	3.4176e-06	33593
bin	3.4888e-06	34121
bin	3.56e-06	33560
bin	3.6312e-06	33632
bin	3.7024e-06	33682
bin	3.7736e-06	33656
bin	3.8448e-06	33676
bin	3.916e-06	33258
bin	3.9872e-06	33055
bin	4.0584e-06	32756
bin	4.1296e-06	32766
bin	4.2008e-06	32793
bin	4.272e-06	32376
bin	4.3432e-06	32507
bin	4.4144e-06	31652
bin	4.4856e-06	31551
bin	4.5568e-06	31241
bin	4.628e-06	31202
bin	4.6992e-06	30573
bin	4.7704e-06	30409
bin	4.8416e-06	30499
bin	4.9128e-06	30518
bin	4.984e-06	29785
bin	5.0552e-06	29480
bin	5.1264e-06	29135
bin	5.1976e-06	28979
bin	5.2688e-06	28857
bin	5.34e-06	28431
bin	5.4112e-06	28093
bin	5.4824e-06	27304
bin	5.5536e-06	27354
bin	5.6248e-06	26894
bin	5.696e-06	26454
bin	5.7672e-06	26046
bin	5.8384e-06	25475
bin	5.9096e-06	24862
bin	5.9808e-06	24736
bin	6.052e-06	24112
bin	6.1232e-06	23464
bin	6.1944e-06	23193
bin	6.2656e-06	22416
bin	6.3368e-06	22313
bin	6.408e-06	21669
bin	6.4792e-06	21117
bin	6.5504e-06	20573
bin	6.6216e-06	20366
bin	6.6928e-06	19753
bin	6.764e-06	19162
bin	6.8352e-06	18840
bin	6.9064e-06	18497
bin	6.9776e-06	18114
bin	7.0488e-06	17615
bin	7.12e-06	17352
bin	7.1912e-06	17019
bin	7.2624e-06	16352
bin	7.3336e-06	16109
bin	7.4048e-06	15697
bin	7.476e-06	15178
bin	7.5472e-06	14846
bin	7.6184e-06	14355
bin	7.6896e-06	13988
bin	7.7608e-06	13623
bin	7.832e-06	13292
bin	7.9032e-06	12855
bin	7.9744e-06	12924
bin	8.0456e-06	12532
bin	8.1168e-06	12267
bin	8.188e-06	11899
bin	8.2592e-06	11528
bin	8.3304e-06	11241
bin	8.4016e-06	11081
bin	8.4728e-06	10662
bin	8.544e-06	10235
bin	8.6152e-06	9974
bin	8.6864e-06	9678
bin	8.7576e-06	9508
bin	8.8288e-06	9074
bin	8.9e-06	8915
bin	8.9712e-06	8925
bin	9.0424e-06	8863
bin	9.1136e-06	8563
bin	9.1848e-06	8404
bin	9.256e-06	8260
bin	9.3272e-06	8058
bin	9.3984e-06	8025
bin	9.4696e-06	7944
bin	9.5408e-06	7675
bin	9.612e-06	7379
bin	9.6832e-06	7430
bin	9.7544e-06	7132
bin	9.8256e-06	7000
bin	9.8968e-06	6734
bin	9.968e-06	6498
bin	1.00392e-05	6423
bin	1.01104e-05	6365
bin	1.01816e-05	6206
bin	1.02528e-05	6187
bin	1.0324e-05	5990
bin	1.03952e-05	5799
bin	1.04664e-05	5800
bin	1.05376e-05	5807
bin	1.06088e-05	5738
bin	1.068e-05	5755
bin	1.07512e-05	5688
bin	1.08224e-05	5553
bin	1.08936e-05	5435
bin	1.09648e-05	5245
bin	1.1036e-05	5348
bin	1.11072e-05	5067
bin	1.11784e-05	5030
bin	1.12496e-05	5174
bin	1.13208e-05	4849
bin	1.1392e-05	4802
bin	1.14632e-05	4646
bin	1.15344e-05	4616
bin	1.16056e-05	4520
bin	1.16768e-05	4401
bin	1.1748e-05	4174
bin	1.18192e-05	4083
bin	1.18904e-05	4052
bin	1.19616e-05	3978
bin	1.20328e-05	3978
bin	1.2104e-05	3888
bin	1.21752e-05	3868
bin	1.22464e-05	3929
bin	1.23176e-05	3924
bin	1.23888e-05	3750
bin	1.246e-05	3803
bin	1.25312e-05	3703
bin	1.26024e-05	3585
bin	1.26736e-05	3630
bin	1.27448e-05	3575
bin	1.2816e-05	3460
bin	1.28872e-05	3471
bin	1.29584e-05	3480
bin	1.30296e-05	3489
bin	1.31008e-05	3435
bin	1.3172e-05	3325
bin	1.32432e-05	3290
bin	1.33144e-05	3362
bin	1.33856e-05	3247
bin	1.34568e-05	3140
bin	1.3528e-05	3092
bin	1.35992e-05	3060
bin	1.36704e-05	3054
bin	1.37416e-05	3033
bin	1.38128e-05	2883
bin	1.3884e-05	2791
bin	1.39552e-05	2841
bin	1.40264e-05	2757
bin	1.40976e-05	2759
bin	1.41688e-05	2606
bin	1.424e-05	2524
bin	1.43112e-05	2453
bin	1.43824e-05	2449
bin	1.44536e-05	2406
bin	1.45248e-05	2367
bin	1.4596e-05	2333
bin	1.46672e-05	2306
bin	1.47384e-05	2200
bin	1.48096e-05	2201
bin	1.48808e-05	2213
bin	1.4952e-05	2277
bin	1.50232e-05	2176
bin	1.50944e-05	2120
bin	1.51656e-05	2060
bin	1.52368e-05	2002
bin	1.5308e-05	1964
bin	1.53792e-05	2057
bin	1.54504e-05	2111
bin	1.55216e-05	2075
bin	1.55928e-05	1966
bin	1.5664e-05	2002
bin	1.57352e-05	1894
bin	1.58064e-05	1962
bin	1.58776e-05	1982
bin	1.59488e-05	2054
bin	1.602e-05	2013
bin	1.60912e-05	1961
bin	1.61624e-05	1958
bin	1.62336e-05	1966
bin	1.63048e-05	1942
bin	1.6376e-05	1903
bin	1.64472e-05	1925
bin	1.65184e-05	1937
bin	1.65896e-05	1881
bin	1.66608e-05	1918
bin	1.6732e-05	1891
bin	1.68032e-05	1833
bin	1.68744e-05	1883
bin	1.69456e-05	1854
bin	1.70168e-05	1849
bin	1.7088e-05	1779
bin	1.71592e-05	1744
bin	1.72304e-05	1744
bin	1.73016e-05	1713
bin	1.73728e-05	1766
bin	1.7444e-05	1713
bin	1.75152e-05	1729
bin	1.75864e-05	1703
bin	1.76576e-05	1719
bin	1.77288e-05	1607
bin	1.78e-05	1625
bin	1.78712e-05	1491
bin	1.79424e-05	1515
bin	1.80136e-05	1526
bin	1.80848e-05	1464
bin	1.8156e-05	1482
bin	1.82272e-05	1445
bin	1.82984e-05	1386
bin	1.83696e-05	1374
bin	1.84408e-05	1475
bin	1.8512e-05	1369
bin	1.85832e-05	1374
bin	1.86544e-05	1391
bin	1.87256e-05	1409
bin	1.87968e-05	1386
bin	1.8868e-05	1388
bin	1.89392e-05	1329
bin	1.90104e-05	1399
bin	1.90816e-05	1336
bin	1.91528e-05	1359
bin	1.9224e-05	1329
bin	1.92952e-05	1359
bin	1.93664e-05	1331
bin	1.94376e-05	1416
bin	1.95088e-05	1344
bin	1.958e-05	1339
bin	1.96512e-05	1322
bin	1.97224e-05	1362
bin	1.97936e-05	1306
bin	1.98648e-05	1285
bin	1.9936e-05	1270
bin	2.00072e-05	1283
bin	2.00784e-05	1274
bin	2.01496e-05	1244
bin	2.02208e-05	1249
bin	2.0292e-05	1291
bin	2.03632e-05	1172
bin	2.04344e-05	1133
bin	2.05056e-05	1220
bin	2.05768e-05	1141
bin	2.0648e-05	1183
bin	2.07192e-05	1194
bin	2.07904e-05	1213
bin	2.08616e-05	1189
bin	2.09328e-05	1133
bin	2.1004e-05	1199
bin	2.10752e-05	1233
bin	2.11464e-05	1229
bin	2.12176e-05	1140
bin	2.12888e-05	1172
bin	2.136e-05	1151
bin	2.14312e-05	1135
bin	2.15024e-05	1153
bin	2.15736e-05	1176
bin	2.16448e-05	1172
bin	2.1716e-05	1194
bin	2.17872e-05	1170
bin	2.18584e-05	1286
bin	2.19296e-05	1223
bin	2.20008e-05	1234
bin	2.2072e-05	1207
bin	2.21432e-05	1191
bin	2.22144e-05	1238
bin	2.22856e-05	1166
bin	2.23568e-05	1160
bin	2.2428e-05	1178
bin	2.24992e-05	1163
bin	2.25704e-05	1202
bin	2.26416e-05	1123
bin	2.27128e-05	1091
bin	2.2784e-05	1168
bin	2.28552e-05	1110
bin	2.29264e-05	1070
bin	2.29976e-05	1093
bin	2.30688e-05	1070
bin	2.314e-05	1061
bin	2.32112e-05	1040
bin	2.32824e-05	1032
bin	2.33536e-05	1044
bin	2.34248e-05	991
bin	2.3496e-05	931
bin	2.35672e-05	970
bin	2.36384e-05	1012
bin	2.37096e-05	980
bin	2.37808e-05	977
bin	2.3852e-05	972
bin	2.39232e-05	1044
bin	2.39944e-05	1002
bin	2.40656e-05	929
bin	2.41368e-05	943
bin	2.4208e-05	1040
bin	2.42792e-05	997
bin	2.43504e-05	979
bin	2.44216e-05	933
bin	2.44928e-05	953
bin	2.4564e-05	944
bin	2.46352e-05	978
bin	2.47064e-05	972
bin	2.47776e-05	912
bin	2.48488e-05	950
bin	2.492e-05	1021
bin	2.49912e-05	980
bin	2.50624e-05	871
bin	2.51336e-05	895
bin	2.52048e-05	860
bin	2.5276e-05	805
bin	2.53472e-05	837
bin	2.54184e-05	846
bin	2.54896e-05	821
bin	2.55608e-05	834
bin	2.5632e-05	811
bin	2.57032e-05	802
bin	2.57744e-05	771
bin	2.58456e-05	848
bin	2.59168e-05	792
bin	2.5988e-05	768
bin	2.60592e-05	827
bin	2.61304e-05	841
bin	2.62016e-05	808
bin	2.62728e-05	778
bin	2.6344e-05	726
bin	2.64152e-05	785
bin	2.64864e-05	822
bin	2.65576e-05	783
bin	2.66288e-05	737
bin	2.67e-05	721
bin	2.67712e-05	750
bin	2.68424e-05	774
bin	2.69136e-05	840
bin	2.69848e-05	823
bin	2.7056e-05	759
bin	2.71272e-05	813
bin	2.71984e-05	801
bin	2.72696e-05	854
bin	2.73408e-05	852
bin	2.7412e-05	895
bin	2.74832e-05	864
bin	2.75544e-05	866
bin	2.76256e-05	907
bin	2.76968e-05	907
bin	2.7768e-05	801
bin	2.78392e-05	813
bin	2.79104e-05	815
bin	2.79816e-05	815
bin	2.80528e-05	791
bin	2.8124e-05	832
bin	2.81952e-05	821
bin	2.82664e-05	850
bin	2.83376e-05	761
bin	2.84088e-05	837
bin	2.848e-05	808
bin	2.85512e-05	805
bin	2.86224e-05	817
bin	2.86936e-05	842
bin	2.87648e-05	872
bin	2.8836e-05	845
bin	2.89072e-05	802
bin	2.89784e-05	770
bin	2.90496e-05	796
bin	2.91208e-05	787
bin	2.9192e-05	794
bin	2.92632e-05	821
bin	2.93344e-05	769
bin	2.94056e-05	747
bin	2.94768e-05	740
bin	2.9548e-05	723
bin	2.96192e-05	688
bin	2.96904e-05	707
bin	2.97616e-05	719
bin	2.98328e-05	778
bin	2.9904e-05	770
bin	2.99752e-05	725
bin	3.00464e-05	702
bin	3.01176e-05	722
bin	3.01888e-05	693
bin	3.026e-05	647
bin	3.03312e-05	636
bin	3.04024e-05	658
bin	3.04736e-05	622
bin	3.05448e-05	651
bin	3.0616e-05	655
bin	3.06872e-05	694
bin	3.07584e-05	675
bin	3.08296e-05	717
bin	3.09008e-05	680
bin	3.0972e-05	684
bin	3.10432e-05	673
bin	3.11144e-05	699
bin	3.11856e-05	645
bin	3.12568e-05	699
bin	3.1328e-05	707
bin	3.13992e-05	694
bin	3.14704e-05	747
bin	3.15416e-05	725
bin	3.16128e-05	720
bin	3.1684e-05	752
bin	3.17552e-05	718
bin	3.18264e-05	767
bin	3.18976e-05	759
bin	3.19688e-05	779
bin	3.204e-05	776
bin	3.21112e-05	754
bin	3.21824e-05	738
bin	3.22536e-05	745
bin	3.23248e-05	787
bin	3.2396e-05	741
bin	3.24672e-05	754
bin	3.25384e-05	723
bin	3.26096e-05	777
bin	3.26808e-05	766
bin	3.2752e-05	756
bin	3.28232e-05	709
bin	3.28944e-05	726
bin	3.29656e-05	781
bin	3.30368e-05	769
bin	3.3108e-05	779
bin	3.31792e-05	770
bin	3.32504e-05	722
bin	3.33216e-05	746
bin	3.33928e-05	698
bin	3.3464e-05	730
bin	3.35352e-05	728
bin	3.36064e-05	703
bin	3.36776e-05	775
bin	3.37488e-05	760
bin	3.382e-05	725
bin	3.38912e-05	687
bin	3.39624e-05	754
bin	3.40336e-05	699
bin	3.41048e-05	734
bin	3.4176e-05	718
bin	3.42472e-05	686
bin	3.43184e-05	674
bin	3.43896e-05	652
bin	3.44608e-05	685
bin	3.4532e-05	663
bin	3.46032e-05	685
bin	3.46744e-05	689
bin	3.47456e-05	687
bin	3.48168e-05	639
bin	3.4888e-05	652
bin	3.49592e-05	645
bin	3.50304e-05	663
bin	3.51016e-05	650
bin	3.51728e-05	683
bin	3.5244e-05	685
bin	3.53152e-05	686
bin	3.53864e-05	664
bin	3.54576e-05	666
bin	3.55288e-05	721
bin	3.56e-05	2570941
statistic Torus3d_bub.timer 	"Life Times"
field count 6291456
field mean 0.0013233506192931
field stddev 0.0018217671516932
field sum 8325.8021938555
field sqrsum 31.898260035959
field min 1.250333333e-06
field max 0.009261107985532
bin	-INF	0
bin	0	0
bin	8.544e-07	146
bin	1.7088e-06	771
bin	2.5632e-06	1774
bin	3.4176e-06	3546
bin	4.272e-06	5693
bin	5.1264e-06	7150
bin	5.9808e-06	7723
bin	6.8352e-06	8281
bin	7.6896e-06	9128
bin	8.544e-06	10925
bin	9.3984e-06	12081
bin	1.02528e-05	13069
bin	1.11072e-05	14126
bin	1.19616e-05	14155
bin	1.2816e-05	14751
bin	1.36704e-05	14627
bin	1.45248e-05	14808
bin	1.53792e-05	14630
bin	1.62336e-05	14460
bin	1.7088e-05	14801
bin	1.79424e-05	15450
bin	1.87968e-05	15617
bin	1.96512e-05	16098
bin	2.05056e-05	16898
bin	2.136e-05	17574
bin	2.22144e-05	18690
bin	2.30688e-05	18980
bin	2.39232e-05	19651
bin	2.47776e-05	20284
bin	2.5632e-05	20546
bin	2.64864e-05	20999
bin	2.73408e-05	21734
bin	2.81952e-05	22046
bin	2.90496e-05	22207
bin	2.9904e-05	22533
bin	3.07584e-05	22938
bin	3.16128e-05	23161
bin	3.24672e-05	23438
bin	3.33216e-05	23640
bin	3.4176e-05	23845
bin	3.50304e-05	23867
bin	3.58848e-05	23748
bin	3.67392e-05	24275
bin	3.75936e-05	24045
bin	3.8448e-05	24598
bin	3.93024e-05	24920
bin	4.01568e-05	25012
bin	4.10112e-05	25637
bin	4.18656e-05	25464
bin	4.272e-05	26085
bin	4.35744e-05	25684
bin	4.44288e-05	25500
bin	4.52832e-05	25952
bin	4.61376e-05	26319
bin	4.6992e-05	25983
bin	4.78464e-05	26597
bin	4.87008e-05	26587
bin	4.95552e-05	26566
bin	5.04096e-05	26903
bin	5.1264e-05	26513
bin	5.21184e-05	26725
bin	5.29728e-05	27012
bin	5.38272e-05	27008
bin	5.46816e-05	27154
bin	5.5536e-05	27532
bin	5.63904e-05	27297
bin	5.72448e-05	27099
bin	5.80992e-05	27142
bin	5.89536e-05	27352
bin	5.9808e-05	27300
bin	6.06624e-05	27282
bin	6.15168e-05	27218
bin	6.23712e-05	27612
bin	6.32256e-05	27509
bin	6.408e-05	27866
bin	6.49344e-05	27823
bin	6.57888e-05	27884
bin	6.66432e-05	27999
bin	6.74976e-05	27952
bin	6.8352e-05	27663
bin	6.92064e-05	27847
bin	7.00608e-05	27641
bin	7.09152e-05	27868
bin	7.17696e-05	27881
bin	7.2624e-05	27820
bin	7.34784e-05	27847
bin	7.43328e-05	27963
bin	7.51872e-05	27569
bin	7.60416e-05	27361
bin	7.6896e-05	27301
bin	7.77504e-05	27472
bin	7.86048e-05	27187
bin	7.94592e-05	27193
bin	8.03136e-05	27046
bin	8.1168e-05	27274
bin	8.20224e-05	26655
bin	8.28768e-05	26630
bin	8.37312e-05	26690
bin	8.45856e-05	26459
bin	8.544e-05	26192
bin	8.62944e-05	26156
bin	8.71488e-05	26338
bin	8.80032e-05	25992
bin	8.88576e-05	25807
bin	8.9712e-05	25649
bin	9.05664e-05	25269
bin	9.14208e-05	25030
bin	9.22752e-05	25200
bin	9.31296e-05	24980
bin	9.3984e-05	24783
bin	9.48384e-05	24445
bin	9.56928e-05	24048
bin	9.65472e-05	24139
bin	9.74016e-05	23912
bin	9.8256e-05	23914
bin	9.91104e-05	23877
bin	9.99648e-05	22975
bin	0.0001008192	22893
bin	0.0001016736	22651
bin	0.000102528	22072
bin	0.0001033824	22049
bin	0.0001042368	21717
bin	0.0001050912	21332
bin	0.0001059456	21438
bin	0.0001068	20842
bin	0.0001076544	20786
bin	0.0001085088	20498
bin	0.0001093632	20055
bin	0.0001102176	19929
bin	0.000111072	19481
bin	0.0001119264	19110
bin	0.0001127808	18641
bin	0.0001136352	18449
bin	0.0001144896	18271
bin	0.000115344	17494
bin	0.0001161984	17446
bin	0.0001170528	17024
bin	0.0001179072	16770
bin	0.0001187616	16216
bin	0.000119616	15889
bin	0.0001204704	15677
bin	0.0001213248	15314
bin	0.0001221792	14933
bin	0.0001230336	14334
bin	0.000123888	12963
bin	0.0001247424	11520
bin	0.0001255968	10496
bin	0.0001264512	9568
bin	0.0001273056	8513
bin	0.00012816	7438
bin	0.0001290144	6646
bin	0.0001298688	6047
bin	0.0001307232	5360
bin	0.0001315776	4917
bin	0.000132432	4660
bin	0.0001332864	4345
bin	0.0001341408	4051
bin	0.0001349952	3670
bin	0.0001358496	3467
bin	0.000136704	3150
bin	0.0001375584	2991
bin	0.0001384128	2846
bin	0.0001392672	2729
bin	0.0001401216	2653
bin	0.000140976	2448
bin	0.0001418304	2362
bin	0.0001426848	2332
bin	0.0001435392	2139
bin	0.0001443936	2061
bin	0.000145248	2034
bin	0.0001461024	1922
bin	0.0001469568	1868
bin	0.0001478112	1897
bin	0.0001486656	1789
bin	0.00014952	1791
bin	0.0001503744	1687
bin	0.0001512288	1814
bin	0.0001520832	1729
bin	0.0001529376	1688
bin	0.000153792	1703
bin	0.0001546464	1708
bin	0.0001555008	1591
bin	0.0001563552	1541
bin	0.0001572096	1566
bin	0.000158064	1541
bin	0.0001589184	1621
bin	0.0001597728	1523
bin	0.0001606272	1557
bin	0.0001614816	1500
bin	0.000162336	1533
bin	0.0001631904	1497
bin	0.0001640448	1570
bin	0.0001648992	1542
bin	0.0001657536	1517
bin	0.000166608	1469
bin	0.0001674624	1486
bin	0.0001683168	1445
bin	0.0001691712	1448
bin	0.0001700256	1362
bin	0.00017088	1420
bin	0.0001717344	1379
bin	0.0001725888	1383
bin	0.0001734432	1440
bin	0.0001742976	1385
bin	0.000175152	1407
bin	0.0001760064	1283
bin	0.0001768608	1351
bin	0.0001777152	1321
bin	0.0001785696	1269
bin	0.000179424	1419
bin	0.0001802784	1372
bin	0.0001811328	1375
bin	0.0001819872	1453
bin	0.0001828416	1495
bin	0.000183696	1385
bin	0.0001845504	1385
bin	0.0001854048	1368
bin	0.0001862592	1362
bin	0.0001871136	1409
bin	0.000187968	1377
bin	0.0001888224	1376
bin	0.0001896768	1358
bin	0.0001905312	1365
bin	0.0001913856	1426
bin	0.00019224	1461
bin	0.0001930944	1473
bin	0.0001939488	1425
bin	0.0001948032	1451
bin	0.0001956576	1424
bin	0.000196512	1434
bin	0.0001973664	1422
bin	0.0001982208	1442
bin	0.0001990752	1413
bin	0.0001999296	1459
bin	0.000200784	1389
bin	0.0002016384	1443
bin	0.0002024928	1409
bin	0.0002033472	1426
bin	0.0002042016	1496
bin	0.000205056	1470
bin	0.0002059104	1499
bin	0.0002067648	1448
bin	0.0002076192	1516
bin	0.0002084736	1492
bin	0.000209328	1532
bin	0.0002101824	1584
bin	0.0002110368	1548
bin	0.0002118912	1524
bin	0.0002127456	1579
bin	0.0002136	1625
bin	0.0002144544	1609
bin	0.0002153088	1622
bin	0.0002161632	1643
bin	0.0002170176	1582
bin	0.000217872	1612
bin	0.0002187264	1685
bin	0.0002195808	1661
bin	0.0002204352	1595
bin	0.0002212896	1589
bin	0.000222144	1649
bin	0.0002229984	1610
bin	0.0002238528	1645
bin	0.0002247072	1667
bin	0.0002255616	1664
bin	0.000226416	1765
bin	0.0002272704	1746
bin	0.0002281248	1812
bin	0.0002289792	1811
bin	0.0002298336	1822
bin	0.000230688	1853
bin	0.0002315424	1898
bin	0.0002323968	1965
bin	0.0002332512	1966
bin	0.0002341056	2052
bin	0.00023496	2004
bin	0.0002358144	1990
bin	0.0002366688	2092
bin	0.0002375232	1990
bin	0.0002383776	2129
bin	0.000239232	2163
bin	0.0002400864	2151
bin	0.0002409408	2167
bin	0.0002417952	2223
bin	0.0002426496	2293
bin	0.000243504	2307
bin	0.0002443584	2280
bin	0.0002452128	2453
bin	0.0002460672	2374
bin	0.0002469216	2303
bin	0.000247776	2221
bin	0.0002486304	2116
bin	0.0002494848	1824
bin	0.0002503392	1931
bin	0.0002511936	1773
bin	0.000252048	1703
bin	0.0002529024	1651
bin	0.0002537568	1535
bin	0.0002546112	1448
bin	0.0002554656	1348
bin	0.00025632	1280
bin	0.0002571744	1285
bin	0.0002580288	1266
bin	0.0002588832	1148
bin	0.0002597376	1117
bin	0.000260592	993
bin	0.0002614464	966
bin	0.0002623008	996
bin	0.0002631552	969
bin	0.0002640096	940
bin	0.000264864	927
bin	0.0002657184	892
bin	0.0002665728	885
bin	0.0002674272	865
bin	0.0002682816	804
bin	0.000269136	857
bin	0.0002699904	845
bin	0.0002708448	800
bin	0.0002716992	761
bin	0.0002725536	783
bin	0.000273408	751
bin	0.0002742624	734
bin	0.0002751168	695
bin	0.0002759712	707
bin	0.0002768256	713
bin	0.00027768	651
bin	0.0002785344	655
bin	0.0002793888	668
bin	0.0002802432	665
bin	0.0002810976	691
bin	0.000281952	671
bin	0.0002828064	677
bin	0.0002836608	597
bin	0.0002845152	619
bin	0.0002853696	663
bin	0.000286224	613
bin	0.0002870784	602
bin	0.0002879328	593
bin	0.0002887872	652
bin	0.0002896416	661
bin	0.000290496	638
bin	0.0002913504	634
bin	0.0002922048	662
bin	0.0002930592	641
bin	0.0002939136	688
bin	0.000294768	652
bin	0.0002956224	660
bin	0.0002964768	696
bin	0.0002973312	680
bin	0.0002981856	681
bin	0.00029904	700
bin	0.0002998944	661
bin	0.0003007488	650
bin	0.0003016032	727
bin	0.0003024576	622
bin	0.000303312	665
bin	0.0003041664	646
bin	0.0003050208	679
bin	0.0003058752	680
bin	0.0003067296	696
bin	0.000307584	708
bin	0.0003084384	696
bin	0.0003092928	705
bin	0.0003101472	716
bin	0.0003110016	723
bin	0.000311856	682
bin	0.0003127104	726
bin	0.0003135648	706
bin	0.0003144192	737
bin	0.0003152736	718
bin	0.000316128	695
bin	0.0003169824	711
bin	0.0003178368	690
bin	0.0003186912	663
bin	0.0003195456	700
bin	0.0003204	719
bin	0.0003212544	709
bin	0.0003221088	709
bin	0.0003229632	748
bin	0.0003238176	740
bin	0.000324672	764
bin	0.0003255264	797
bin	0.0003263808	691
bin	0.0003272352	701
bin	0.0003280896	733
bin	0.000328944	766
bin	0.0003297984	776
bin	0.0003306528	736
bin	0.0003315072	770
bin	0.0003323616	783
bin	0.000333216	788
bin	0.0003340704	746
bin	0.0003349248	729
bin	0.0003357792	803
bin	0.0003366336	796
bin	0.000337488	767
bin	0.0003383424	778
bin	0.0003391968	834
bin	0.0003400512	750
bin	0.0003409056	811
bin	0.00034176	830
bin	0.0003426144	863
bin	0.0003434688	808
bin	0.0003443232	844
bin	0.0003451776	844
bin	0.000346032	815
bin	0.0003468864	875
bin	0.0003477408	857
bin	0.0003485952	853
bin	0.0003494496	843
bin	0.000350304	943
bin	0.0003511584	903
bin	0.0003520128	908
bin	0.0003528672	923
bin	0.0003537216	924
bin	0.000354576	956
bin	0.0003554304	963
bin	0.0003562848	964
bin	0.0003571392	918
bin	0.0003579936	1009
bin	0.000358848	997
bin	0.0003597024	996
bin	0.0003605568	985
bin	0.0003614112	1038
bin	0.0003622656	1006
bin	0.00036312	1004
bin	0.0003639744	1036
bin	0.0003648288	1074
bin	0.0003656832	1042
bin	0.0003665376	1079
bin	0.000367392	1052
bin	0.0003682464	1112
bin	0.0003691008	1123
bin	0.0003699552	1107
bin	0.0003708096	1089
bin	0.000371664	1085
bin	0.0003725184	1073
bin	0.0003733728	968
bin	0.0003742272	973
bin	0.0003750816	951
bin	0.000375936	878
bin	0.0003767904	836
bin	0.0003776448	858
bin	0.0003784992	788
bin	0.0003793536	793
bin	0.000380208	772
bin	0.0003810624	729
bin	0.0003819168	742
bin	0.0003827712	696
bin	0.0003836256	687
bin	0.00038448	650
bin	0.0003853344	653
bin	0.0003861888	621
bin	0.0003870432	637
bin	0.0003878976	640
bin	0.000388752	594
bin	0.0003896064	579
bin	0.0003904608	569
bin	0.0003913152	539
bin	0.0003921696	561
bin	0.000393024	532
bin	0.0003938784	543
bin	0.0003947328	536
bin	0.0003955872	501
bin	0.0003964416	534
bin	0.000397296	475
bin	0.0003981504	487
bin	0.0003990048	508
bin	0.0003998592	462
bin	0.0004007136	466
bin	0.000401568	456
bin	0.0004024224	446
bin	0.0004032768	471
bin	0.0004041312	448
bin	0.0004049856	415
bin	0.00040584	443
bin	0.0004066944	442
bin	0.0004075488	415
bin	0.0004084032	452
bin	0.0004092576	451
bin	0.000410112	468
bin	0.0004109664	447
bin	0.0004118208	486
bin	0.0004126752	494
bin	0.0004135296	487
bin	0.000414384	491
bin	0.0004152384	523
bin	0.0004160928	478
bin	0.0004169472	494
bin	0.0004178016	472
bin	0.000418656	513
bin	0.0004195104	454
bin	0.0004203648	441
bin	0.0004212192	456
bin	0.0004220736	474
bin	0.000422928	474
bin	0.0004237824	475
bin	0.0004246368	474
bin	0.0004254912	462
bin	0.0004263456	488
bin	0.0004272	2659803
