version 2
run Bitcomplement-18-20120709-19:47:09-24888
attr alg 2
attr buf 8
attr configname Bitcomplement
attr datetime 20120709-19:47:09
attr delta 0.4
attr experiment Bitcomplement
attr ext true
attr inifile altro.ini
attr iterationvars "$buf=8, $ext=true, $ofedge=2, $delta=0.4, $alg=2"
attr iterationvars2 "$buf=8, $ext=true, $ofedge=2, $delta=0.4, $alg=2, $repetition=0"
attr measurement "$buf=8, $ext=true, $ofedge=2, $delta=0.4, $alg=2"
attr network Torus3d_bub
attr ofedge 2
attr processid 24888
attr repetition 0
attr replication #0
attr resultdir altro-results
attr runnumber 18
attr seedset 18

scalar . 	alg 	2
scalar . 	buf 	8
scalar . 	delta 	0.4
scalar . 	ofedge 	2
scalar Torus3d_bub.timer 	#endTime 	0.004743940325924
scalar Torus3d_bub.timer 	#totalHops 	118441012
scalar Torus3d_bub.timer 	#totalPacks 	6291456
scalar Torus3d_bub.timer 	#totalDerouted 	4434680
scalar Torus3d_bub.timer 	#totalOutFlanked 	0
scalar Torus3d_bub.timer 	#totalCQRed 	4434680
scalar Torus3d_bub.timer 	#LB 	0.000786432
scalar Torus3d_bub.timer 	#ratio 	0.16577611562743
statistic Torus3d_bub.timer 	"Hop Times"
field count 6291456
field mean 3.1865450704143e-05
field stddev 7.2954228839091e-05
field sum 200.48008102528
field sqrsum 0.03987352180359
field min 4.21719278e-07
field max 0.001560927444444
bin	-INF	0
bin	0	0
bin	7.12e-08	0
bin	1.424e-07	0
bin	2.136e-07	0
bin	2.848e-07	0
bin	3.56e-07	2
bin	4.272e-07	385
bin	4.984e-07	2328
bin	5.696e-07	5581
bin	6.408e-07	11424
bin	7.12e-07	21781
bin	7.832e-07	33984
bin	8.544e-07	44383
bin	9.256e-07	52545
bin	9.968e-07	56906
bin	1.068e-06	59399
bin	1.1392e-06	61617
bin	1.2104e-06	64274
bin	1.2816e-06	65958
bin	1.3528e-06	67658
bin	1.424e-06	68506
bin	1.4952e-06	69669
bin	1.5664e-06	70808
bin	1.6376e-06	72188
bin	1.7088e-06	73751
bin	1.78e-06	75737
bin	1.8512e-06	77203
bin	1.9224e-06	78877
bin	1.9936e-06	79821
bin	2.0648e-06	80800
bin	2.136e-06	81002
bin	2.2072e-06	81058
bin	2.2784e-06	80990
bin	2.3496e-06	80341
bin	2.4208e-06	79558
bin	2.492e-06	77579
bin	2.5632e-06	75999
bin	2.6344e-06	74863
bin	2.7056e-06	73711
bin	2.7768e-06	71858
bin	2.848e-06	70238
bin	2.9192e-06	69388
bin	2.9904e-06	66951
bin	3.0616e-06	65345
bin	3.1328e-06	63213
bin	3.204e-06	62141
bin	3.2752e-06	60497
bin	3.3464e-06	57737
bin	3.4176e-06	55731
bin	3.4888e-06	54359
bin	3.56e-06	51969
bin	3.6312e-06	50124
bin	3.7024e-06	48138
bin	3.7736e-06	46040
bin	3.8448e-06	44476
bin	3.916e-06	42526
bin	3.9872e-06	41173
bin	4.0584e-06	39535
bin	4.1296e-06	38590
bin	4.2008e-06	36961
bin	4.272e-06	35049
bin	4.3432e-06	33489
bin	4.4144e-06	31934
bin	4.4856e-06	31069
bin	4.5568e-06	29620
bin	4.628e-06	28902
bin	4.6992e-06	28337
bin	4.7704e-06	27273
bin	4.8416e-06	26140
bin	4.9128e-06	24473
bin	4.984e-06	23655
bin	5.0552e-06	23059
bin	5.1264e-06	22380
bin	5.1976e-06	22103
bin	5.2688e-06	21472
bin	5.34e-06	20990
bin	5.4112e-06	20463
bin	5.4824e-06	19727
bin	5.5536e-06	18973
bin	5.6248e-06	18486
bin	5.696e-06	17802
bin	5.7672e-06	17312
bin	5.8384e-06	16802
bin	5.9096e-06	16288
bin	5.9808e-06	15921
bin	6.052e-06	15648
bin	6.1232e-06	15068
bin	6.1944e-06	14857
bin	6.2656e-06	14595
bin	6.3368e-06	14218
bin	6.408e-06	13718
bin	6.4792e-06	13433
bin	6.5504e-06	12753
bin	6.6216e-06	12554
bin	6.6928e-06	12048
bin	6.764e-06	11854
bin	6.8352e-06	11791
bin	6.9064e-06	11843
bin	6.9776e-06	11434
bin	7.0488e-06	11140
bin	7.12e-06	10958
bin	7.1912e-06	10566
bin	7.2624e-06	10580
bin	7.3336e-06	10164
bin	7.4048e-06	9940
bin	7.476e-06	9716
bin	7.5472e-06	9554
bin	7.6184e-06	9313
bin	7.6896e-06	9105
bin	7.7608e-06	9148
bin	7.832e-06	8785
bin	7.9032e-06	8756
bin	7.9744e-06	8581
bin	8.0456e-06	8440
bin	8.1168e-06	8194
bin	8.188e-06	7926
bin	8.2592e-06	7793
bin	8.3304e-06	7688
bin	8.4016e-06	7651
bin	8.4728e-06	7453
bin	8.544e-06	7481
bin	8.6152e-06	7318
bin	8.6864e-06	7107
bin	8.7576e-06	7109
bin	8.8288e-06	6997
bin	8.9e-06	6711
bin	8.9712e-06	6587
bin	9.0424e-06	6610
bin	9.1136e-06	6369
bin	9.1848e-06	6315
bin	9.256e-06	6255
bin	9.3272e-06	6329
bin	9.3984e-06	6048
bin	9.4696e-06	5925
bin	9.5408e-06	5865
bin	9.612e-06	5746
bin	9.6832e-06	5641
bin	9.7544e-06	5635
bin	9.8256e-06	5618
bin	9.8968e-06	5420
bin	9.968e-06	5302
bin	1.00392e-05	5191
bin	1.01104e-05	5385
bin	1.01816e-05	5107
bin	1.02528e-05	5021
bin	1.0324e-05	5114
bin	1.03952e-05	4947
bin	1.04664e-05	4757
bin	1.05376e-05	4747
bin	1.06088e-05	4726
bin	1.068e-05	4701
bin	1.07512e-05	4616
bin	1.08224e-05	4601
bin	1.08936e-05	4546
bin	1.09648e-05	4451
bin	1.1036e-05	4416
bin	1.11072e-05	4471
bin	1.11784e-05	4322
bin	1.12496e-05	4425
bin	1.13208e-05	4259
bin	1.1392e-05	4258
bin	1.14632e-05	4140
bin	1.15344e-05	4003
bin	1.16056e-05	3986
bin	1.16768e-05	3902
bin	1.1748e-05	3953
bin	1.18192e-05	3784
bin	1.18904e-05	3836
bin	1.19616e-05	3834
bin	1.20328e-05	3791
bin	1.2104e-05	3708
bin	1.21752e-05	3683
bin	1.22464e-05	3609
bin	1.23176e-05	3694
bin	1.23888e-05	3547
bin	1.246e-05	3443
bin	1.25312e-05	3400
bin	1.26024e-05	3381
bin	1.26736e-05	3359
bin	1.27448e-05	3390
bin	1.2816e-05	3462
bin	1.28872e-05	3386
bin	1.29584e-05	3314
bin	1.30296e-05	3306
bin	1.31008e-05	3236
bin	1.3172e-05	3160
bin	1.32432e-05	3165
bin	1.33144e-05	3151
bin	1.33856e-05	3145
bin	1.34568e-05	3050
bin	1.3528e-05	2972
bin	1.35992e-05	3048
bin	1.36704e-05	2997
bin	1.37416e-05	3011
bin	1.38128e-05	2958
bin	1.3884e-05	2912
bin	1.39552e-05	2905
bin	1.40264e-05	2925
bin	1.40976e-05	2888
bin	1.41688e-05	2842
bin	1.424e-05	2954
bin	1.43112e-05	2824
bin	1.43824e-05	2762
bin	1.44536e-05	2788
bin	1.45248e-05	2650
bin	1.4596e-05	2661
bin	1.46672e-05	2620
bin	1.47384e-05	2615
bin	1.48096e-05	2664
bin	1.48808e-05	2647
bin	1.4952e-05	2554
bin	1.50232e-05	2533
bin	1.50944e-05	2427
bin	1.51656e-05	2556
bin	1.52368e-05	2480
bin	1.5308e-05	2496
bin	1.53792e-05	2394
bin	1.54504e-05	2497
bin	1.55216e-05	2389
bin	1.55928e-05	2415
bin	1.5664e-05	2292
bin	1.57352e-05	2370
bin	1.58064e-05	2372
bin	1.58776e-05	2286
bin	1.59488e-05	2231
bin	1.602e-05	2279
bin	1.60912e-05	2253
bin	1.61624e-05	2309
bin	1.62336e-05	2219
bin	1.63048e-05	2198
bin	1.6376e-05	2157
bin	1.64472e-05	2246
bin	1.65184e-05	2349
bin	1.65896e-05	2281
bin	1.66608e-05	2311
bin	1.6732e-05	2279
bin	1.68032e-05	2190
bin	1.68744e-05	2144
bin	1.69456e-05	2138
bin	1.70168e-05	2059
bin	1.7088e-05	2133
bin	1.71592e-05	2090
bin	1.72304e-05	2010
bin	1.73016e-05	2045
bin	1.73728e-05	2020
bin	1.7444e-05	2065
bin	1.75152e-05	2055
bin	1.75864e-05	2098
bin	1.76576e-05	1996
bin	1.77288e-05	1950
bin	1.78e-05	1970
bin	1.78712e-05	2013
bin	1.79424e-05	1967
bin	1.80136e-05	2023
bin	1.80848e-05	1971
bin	1.8156e-05	1961
bin	1.82272e-05	1941
bin	1.82984e-05	1917
bin	1.83696e-05	1895
bin	1.84408e-05	1929
bin	1.8512e-05	1884
bin	1.85832e-05	1875
bin	1.86544e-05	1893
bin	1.87256e-05	1829
bin	1.87968e-05	1783
bin	1.8868e-05	1882
bin	1.89392e-05	1868
bin	1.90104e-05	1897
bin	1.90816e-05	1915
bin	1.91528e-05	1883
bin	1.9224e-05	1865
bin	1.92952e-05	1787
bin	1.93664e-05	1743
bin	1.94376e-05	1830
bin	1.95088e-05	1802
bin	1.958e-05	1814
bin	1.96512e-05	1852
bin	1.97224e-05	1869
bin	1.97936e-05	1881
bin	1.98648e-05	1781
bin	1.9936e-05	1812
bin	2.00072e-05	1792
bin	2.00784e-05	1843
bin	2.01496e-05	1770
bin	2.02208e-05	1786
bin	2.0292e-05	1778
bin	2.03632e-05	1771
bin	2.04344e-05	1738
bin	2.05056e-05	1732
bin	2.05768e-05	1767
bin	2.0648e-05	1734
bin	2.07192e-05	1658
bin	2.07904e-05	1734
bin	2.08616e-05	1579
bin	2.09328e-05	1660
bin	2.1004e-05	1651
bin	2.10752e-05	1550
bin	2.11464e-05	1636
bin	2.12176e-05	1644
bin	2.12888e-05	1598
bin	2.136e-05	1522
bin	2.14312e-05	1678
bin	2.15024e-05	1593
bin	2.15736e-05	1604
bin	2.16448e-05	1667
bin	2.1716e-05	1597
bin	2.17872e-05	1619
bin	2.18584e-05	1614
bin	2.19296e-05	1598
bin	2.20008e-05	1675
bin	2.2072e-05	1619
bin	2.21432e-05	1609
bin	2.22144e-05	1630
bin	2.22856e-05	1628
bin	2.23568e-05	1604
bin	2.2428e-05	1489
bin	2.24992e-05	1597
bin	2.25704e-05	1623
bin	2.26416e-05	1585
bin	2.27128e-05	1570
bin	2.2784e-05	1517
bin	2.28552e-05	1513
bin	2.29264e-05	1593
bin	2.29976e-05	1553
bin	2.30688e-05	1507
bin	2.314e-05	1410
bin	2.32112e-05	1488
bin	2.32824e-05	1494
bin	2.33536e-05	1503
bin	2.34248e-05	1441
bin	2.3496e-05	1435
bin	2.35672e-05	1499
bin	2.36384e-05	1465
bin	2.37096e-05	1467
bin	2.37808e-05	1427
bin	2.3852e-05	1496
bin	2.39232e-05	1510
bin	2.39944e-05	1478
bin	2.40656e-05	1520
bin	2.41368e-05	1531
bin	2.4208e-05	1400
bin	2.42792e-05	1374
bin	2.43504e-05	1459
bin	2.44216e-05	1442
bin	2.44928e-05	1492
bin	2.4564e-05	1492
bin	2.46352e-05	1436
bin	2.47064e-05	1368
bin	2.47776e-05	1378
bin	2.48488e-05	1375
bin	2.492e-05	1378
bin	2.49912e-05	1376
bin	2.50624e-05	1432
bin	2.51336e-05	1327
bin	2.52048e-05	1342
bin	2.5276e-05	1322
bin	2.53472e-05	1343
bin	2.54184e-05	1349
bin	2.54896e-05	1331
bin	2.55608e-05	1387
bin	2.5632e-05	1326
bin	2.57032e-05	1325
bin	2.57744e-05	1291
bin	2.58456e-05	1275
bin	2.59168e-05	1271
bin	2.5988e-05	1277
bin	2.60592e-05	1272
bin	2.61304e-05	1331
bin	2.62016e-05	1315
bin	2.62728e-05	1346
bin	2.6344e-05	1273
bin	2.64152e-05	1239
bin	2.64864e-05	1247
bin	2.65576e-05	1305
bin	2.66288e-05	1262
bin	2.67e-05	1263
bin	2.67712e-05	1336
bin	2.68424e-05	1331
bin	2.69136e-05	1345
bin	2.69848e-05	1279
bin	2.7056e-05	1290
bin	2.71272e-05	1212
bin	2.71984e-05	1202
bin	2.72696e-05	1253
bin	2.73408e-05	1206
bin	2.7412e-05	1195
bin	2.74832e-05	1242
bin	2.75544e-05	1226
bin	2.76256e-05	1257
bin	2.76968e-05	1200
bin	2.7768e-05	1191
bin	2.78392e-05	1310
bin	2.79104e-05	1274
bin	2.79816e-05	1135
bin	2.80528e-05	1174
bin	2.8124e-05	1165
bin	2.81952e-05	1251
bin	2.82664e-05	1163
bin	2.83376e-05	1191
bin	2.84088e-05	1199
bin	2.848e-05	1176
bin	2.85512e-05	1178
bin	2.86224e-05	1173
bin	2.86936e-05	1125
bin	2.87648e-05	1176
bin	2.8836e-05	1109
bin	2.89072e-05	1199
bin	2.89784e-05	1174
bin	2.90496e-05	1115
bin	2.91208e-05	1111
bin	2.9192e-05	1162
bin	2.92632e-05	1098
bin	2.93344e-05	1188
bin	2.94056e-05	1083
bin	2.94768e-05	1181
bin	2.9548e-05	1111
bin	2.96192e-05	1150
bin	2.96904e-05	1170
bin	2.97616e-05	1153
bin	2.98328e-05	1103
bin	2.9904e-05	1147
bin	2.99752e-05	1107
bin	3.00464e-05	1124
bin	3.01176e-05	1112
bin	3.01888e-05	1147
bin	3.026e-05	1039
bin	3.03312e-05	1091
bin	3.04024e-05	1106
bin	3.04736e-05	1139
bin	3.05448e-05	1139
bin	3.0616e-05	1145
bin	3.06872e-05	1145
bin	3.07584e-05	1100
bin	3.08296e-05	1125
bin	3.09008e-05	1043
bin	3.0972e-05	1019
bin	3.10432e-05	1037
bin	3.11144e-05	977
bin	3.11856e-05	964
bin	3.12568e-05	1019
bin	3.1328e-05	1115
bin	3.13992e-05	1083
bin	3.14704e-05	1093
bin	3.15416e-05	1019
bin	3.16128e-05	1067
bin	3.1684e-05	1092
bin	3.17552e-05	1067
bin	3.18264e-05	1026
bin	3.18976e-05	1064
bin	3.19688e-05	1054
bin	3.204e-05	1090
bin	3.21112e-05	1129
bin	3.21824e-05	1115
bin	3.22536e-05	1086
bin	3.23248e-05	1048
bin	3.2396e-05	1092
bin	3.24672e-05	1132
bin	3.25384e-05	1063
bin	3.26096e-05	1123
bin	3.26808e-05	1103
bin	3.2752e-05	1130
bin	3.28232e-05	1108
bin	3.28944e-05	1095
bin	3.29656e-05	1040
bin	3.30368e-05	1137
bin	3.3108e-05	1081
bin	3.31792e-05	1128
bin	3.32504e-05	1097
bin	3.33216e-05	1101
bin	3.33928e-05	1100
bin	3.3464e-05	1071
bin	3.35352e-05	1003
bin	3.36064e-05	1048
bin	3.36776e-05	991
bin	3.37488e-05	890
bin	3.382e-05	965
bin	3.38912e-05	951
bin	3.39624e-05	1008
bin	3.40336e-05	957
bin	3.41048e-05	1044
bin	3.4176e-05	1042
bin	3.42472e-05	1050
bin	3.43184e-05	1012
bin	3.43896e-05	986
bin	3.44608e-05	1032
bin	3.4532e-05	987
bin	3.46032e-05	1055
bin	3.46744e-05	1013
bin	3.47456e-05	976
bin	3.48168e-05	1011
bin	3.4888e-05	997
bin	3.49592e-05	1000
bin	3.50304e-05	1082
bin	3.51016e-05	1030
bin	3.51728e-05	1071
bin	3.5244e-05	1051
bin	3.53152e-05	995
bin	3.53864e-05	995
bin	3.54576e-05	1022
bin	3.55288e-05	1012
bin	3.56e-05	1370266
statistic Torus3d_bub.timer 	"Life Times"
field count 6291456
field mean 0.0004869046128608
field stddev 0.00082252814456539
field sum 3063.3389480108
field sqrsum 5.7480537792086
field min 1.463666666e-06
field max 0.004690628999327
bin	-INF	0
bin	0	0
bin	8.544e-07	21
bin	1.7088e-06	145
bin	2.5632e-06	286
bin	3.4176e-06	597
bin	4.272e-06	925
bin	5.1264e-06	1488
bin	5.9808e-06	2244
bin	6.8352e-06	3336
bin	7.6896e-06	4876
bin	8.544e-06	6645
bin	9.3984e-06	8496
bin	1.02528e-05	10874
bin	1.11072e-05	13014
bin	1.19616e-05	15629
bin	1.2816e-05	18147
bin	1.36704e-05	20742
bin	1.45248e-05	22817
bin	1.53792e-05	25059
bin	1.62336e-05	26433
bin	1.7088e-05	27536
bin	1.79424e-05	29412
bin	1.87968e-05	29958
bin	1.96512e-05	30409
bin	2.05056e-05	30524
bin	2.136e-05	30423
bin	2.22144e-05	30723
bin	2.30688e-05	31051
bin	2.39232e-05	31436
bin	2.47776e-05	32374
bin	2.5632e-05	33184
bin	2.64864e-05	34397
bin	2.73408e-05	36165
bin	2.81952e-05	36745
bin	2.90496e-05	38504
bin	2.9904e-05	39818
bin	3.07584e-05	40821
bin	3.16128e-05	42320
bin	3.24672e-05	42978
bin	3.33216e-05	44171
bin	3.4176e-05	44671
bin	3.50304e-05	45387
bin	3.58848e-05	46082
bin	3.67392e-05	46747
bin	3.75936e-05	47144
bin	3.8448e-05	47359
bin	3.93024e-05	48391
bin	4.01568e-05	49137
bin	4.10112e-05	49244
bin	4.18656e-05	49427
bin	4.272e-05	50066
bin	4.35744e-05	50656
bin	4.44288e-05	50768
bin	4.52832e-05	51181
bin	4.61376e-05	52239
bin	4.6992e-05	51996
bin	4.78464e-05	52275
bin	4.87008e-05	53063
bin	4.95552e-05	52967
bin	5.04096e-05	53680
bin	5.1264e-05	53582
bin	5.21184e-05	54369
bin	5.29728e-05	54189
bin	5.38272e-05	54114
bin	5.46816e-05	54349
bin	5.5536e-05	54590
bin	5.63904e-05	54518
bin	5.72448e-05	54909
bin	5.80992e-05	54595
bin	5.89536e-05	54355
bin	5.9808e-05	54141
bin	6.06624e-05	53854
bin	6.15168e-05	53356
bin	6.23712e-05	50199
bin	6.32256e-05	47006
bin	6.408e-05	44332
bin	6.49344e-05	42729
bin	6.57888e-05	41225
bin	6.66432e-05	39718
bin	6.74976e-05	38369
bin	6.8352e-05	37779
bin	6.92064e-05	36993
bin	7.00608e-05	35828
bin	7.09152e-05	35003
bin	7.17696e-05	34160
bin	7.2624e-05	32809
bin	7.34784e-05	31755
bin	7.43328e-05	30370
bin	7.51872e-05	29165
bin	7.60416e-05	27487
bin	7.6896e-05	25956
bin	7.77504e-05	24596
bin	7.86048e-05	24043
bin	7.94592e-05	22996
bin	8.03136e-05	22621
bin	8.1168e-05	21844
bin	8.20224e-05	21249
bin	8.28768e-05	20677
bin	8.37312e-05	20433
bin	8.45856e-05	19821
bin	8.544e-05	19155
bin	8.62944e-05	18364
bin	8.71488e-05	17661
bin	8.80032e-05	17307
bin	8.88576e-05	16420
bin	8.9712e-05	16165
bin	9.05664e-05	15369
bin	9.14208e-05	14937
bin	9.22752e-05	14090
bin	9.31296e-05	13756
bin	9.3984e-05	13327
bin	9.48384e-05	12731
bin	9.56928e-05	12314
bin	9.65472e-05	12062
bin	9.74016e-05	11524
bin	9.8256e-05	11259
bin	9.91104e-05	10780
bin	9.99648e-05	10855
bin	0.0001008192	10477
bin	0.0001016736	10518
bin	0.000102528	10118
bin	0.0001033824	9915
bin	0.0001042368	9871
bin	0.0001050912	9552
bin	0.0001059456	9505
bin	0.0001068	9280
bin	0.0001076544	9279
bin	0.0001085088	9167
bin	0.0001093632	9033
bin	0.0001102176	8897
bin	0.000111072	8714
bin	0.0001119264	8907
bin	0.0001127808	8817
bin	0.0001136352	8664
bin	0.0001144896	8770
bin	0.000115344	8560
bin	0.0001161984	8526
bin	0.0001170528	8590
bin	0.0001179072	8497
bin	0.0001187616	8355
bin	0.000119616	8304
bin	0.0001204704	8563
bin	0.0001213248	8334
bin	0.0001221792	8431
bin	0.0001230336	8397
bin	0.000123888	8142
bin	0.0001247424	7944
bin	0.0001255968	7872
bin	0.0001264512	7801
bin	0.0001273056	7571
bin	0.00012816	7827
bin	0.0001290144	7579
bin	0.0001298688	7614
bin	0.0001307232	7591
bin	0.0001315776	7596
bin	0.000132432	7520
bin	0.0001332864	7483
bin	0.0001341408	7245
bin	0.0001349952	7068
bin	0.0001358496	6830
bin	0.000136704	6719
bin	0.0001375584	6699
bin	0.0001384128	6470
bin	0.0001392672	6300
bin	0.0001401216	6222
bin	0.000140976	5964
bin	0.0001418304	5800
bin	0.0001426848	5581
bin	0.0001435392	5712
bin	0.0001443936	5533
bin	0.000145248	5544
bin	0.0001461024	5152
bin	0.0001469568	5142
bin	0.0001478112	4990
bin	0.0001486656	5003
bin	0.00014952	4892
bin	0.0001503744	4812
bin	0.0001512288	4660
bin	0.0001520832	4643
bin	0.0001529376	4535
bin	0.000153792	4212
bin	0.0001546464	4279
bin	0.0001555008	4156
bin	0.0001563552	4099
bin	0.0001572096	3977
bin	0.000158064	3926
bin	0.0001589184	3735
bin	0.0001597728	3756
bin	0.0001606272	3606
bin	0.0001614816	3416
bin	0.000162336	3495
bin	0.0001631904	3533
bin	0.0001640448	3464
bin	0.0001648992	3294
bin	0.0001657536	3336
bin	0.000166608	3409
bin	0.0001674624	3274
bin	0.0001683168	3373
bin	0.0001691712	3280
bin	0.0001700256	3209
bin	0.00017088	3379
bin	0.0001717344	3327
bin	0.0001725888	3189
bin	0.0001734432	3260
bin	0.0001742976	3191
bin	0.000175152	3175
bin	0.0001760064	3200
bin	0.0001768608	3222
bin	0.0001777152	3291
bin	0.0001785696	3303
bin	0.000179424	3300
bin	0.0001802784	3353
bin	0.0001811328	3391
bin	0.0001819872	3343
bin	0.0001828416	3314
bin	0.000183696	3404
bin	0.0001845504	3213
bin	0.0001854048	3317
bin	0.0001862592	3288
bin	0.0001871136	3304
bin	0.000187968	3308
bin	0.0001888224	3270
bin	0.0001896768	3317
bin	0.0001905312	3212
bin	0.0001913856	3236
bin	0.00019224	3230
bin	0.0001930944	3228
bin	0.0001939488	3126
bin	0.0001948032	3159
bin	0.0001956576	3046
bin	0.000196512	3177
bin	0.0001973664	3180
bin	0.0001982208	2936
bin	0.0001990752	2916
bin	0.0001999296	3040
bin	0.000200784	2861
bin	0.0002016384	2877
bin	0.0002024928	2777
bin	0.0002033472	2719
bin	0.0002042016	2770
bin	0.000205056	2619
bin	0.0002059104	2645
bin	0.0002067648	2568
bin	0.0002076192	2663
bin	0.0002084736	2444
bin	0.000209328	2493
bin	0.0002101824	2482
bin	0.0002110368	2368
bin	0.0002118912	2299
bin	0.0002127456	2210
bin	0.0002136	2201
bin	0.0002144544	2260
bin	0.0002153088	2227
bin	0.0002161632	2213
bin	0.0002170176	2120
bin	0.000217872	2219
bin	0.0002187264	2112
bin	0.0002195808	1998
bin	0.0002204352	2022
bin	0.0002212896	1958
bin	0.000222144	1957
bin	0.0002229984	1912
bin	0.0002238528	1899
bin	0.0002247072	1882
bin	0.0002255616	1832
bin	0.000226416	1907
bin	0.0002272704	1885
bin	0.0002281248	1903
bin	0.0002289792	1819
bin	0.0002298336	1834
bin	0.000230688	1848
bin	0.0002315424	1854
bin	0.0002323968	1818
bin	0.0002332512	1843
bin	0.0002341056	1849
bin	0.00023496	1822
bin	0.0002358144	1853
bin	0.0002366688	1883
bin	0.0002375232	1940
bin	0.0002383776	1921
bin	0.000239232	1941
bin	0.0002400864	1858
bin	0.0002409408	1818
bin	0.0002417952	1934
bin	0.0002426496	1834
bin	0.000243504	1870
bin	0.0002443584	1901
bin	0.0002452128	1989
bin	0.0002460672	1991
bin	0.0002469216	1995
bin	0.000247776	1971
bin	0.0002486304	1818
bin	0.0002494848	1804
bin	0.0002503392	1933
bin	0.0002511936	1948
bin	0.000252048	1949
bin	0.0002529024	2070
bin	0.0002537568	1956
bin	0.0002546112	1872
bin	0.0002554656	1991
bin	0.00025632	1942
bin	0.0002571744	1872
bin	0.0002580288	1945
bin	0.0002588832	1863
bin	0.0002597376	1877
bin	0.000260592	1915
bin	0.0002614464	1704
bin	0.0002623008	1802
bin	0.0002631552	1714
bin	0.0002640096	1748
bin	0.000264864	1703
bin	0.0002657184	1674
bin	0.0002665728	1612
bin	0.0002674272	1581
bin	0.0002682816	1581
bin	0.000269136	1615
bin	0.0002699904	1578
bin	0.0002708448	1507
bin	0.0002716992	1490
bin	0.0002725536	1468
bin	0.000273408	1558
bin	0.0002742624	1538
bin	0.0002751168	1512
bin	0.0002759712	1480
bin	0.0002768256	1436
bin	0.00027768	1425
bin	0.0002785344	1423
bin	0.0002793888	1376
bin	0.0002802432	1387
bin	0.0002810976	1385
bin	0.000281952	1338
bin	0.0002828064	1333
bin	0.0002836608	1284
bin	0.0002845152	1304
bin	0.0002853696	1299
bin	0.000286224	1282
bin	0.0002870784	1305
bin	0.0002879328	1285
bin	0.0002887872	1314
bin	0.0002896416	1232
bin	0.000290496	1224
bin	0.0002913504	1268
bin	0.0002922048	1199
bin	0.0002930592	1278
bin	0.0002939136	1246
bin	0.000294768	1222
bin	0.0002956224	1251
bin	0.0002964768	1212
bin	0.0002973312	1246
bin	0.0002981856	1260
bin	0.00029904	1248
bin	0.0002998944	1315
bin	0.0003007488	1288
bin	0.0003016032	1297
bin	0.0003024576	1304
bin	0.000303312	1266
bin	0.0003041664	1244
bin	0.0003050208	1303
bin	0.0003058752	1340
bin	0.0003067296	1288
bin	0.000307584	1323
bin	0.0003084384	1318
bin	0.0003092928	1352
bin	0.0003101472	1389
bin	0.0003110016	1342
bin	0.000311856	1363
bin	0.0003127104	1317
bin	0.0003135648	1347
bin	0.0003144192	1306
bin	0.0003152736	1347
bin	0.000316128	1368
bin	0.0003169824	1321
bin	0.0003178368	1318
bin	0.0003186912	1354
bin	0.0003195456	1298
bin	0.0003204	1332
bin	0.0003212544	1307
bin	0.0003221088	1308
bin	0.0003229632	1214
bin	0.0003238176	1200
bin	0.000324672	1213
bin	0.0003255264	1222
bin	0.0003263808	1212
bin	0.0003272352	1231
bin	0.0003280896	1209
bin	0.000328944	1177
bin	0.0003297984	1098
bin	0.0003306528	1127
bin	0.0003315072	1119
bin	0.0003323616	1224
bin	0.000333216	1180
bin	0.0003340704	1160
bin	0.0003349248	1111
bin	0.0003357792	1113
bin	0.0003366336	1164
bin	0.000337488	1088
bin	0.0003383424	1120
bin	0.0003391968	1092
bin	0.0003400512	1070
bin	0.0003409056	1113
bin	0.00034176	1048
bin	0.0003426144	1051
bin	0.0003434688	1068
bin	0.0003443232	1037
bin	0.0003451776	1038
bin	0.000346032	1003
bin	0.0003468864	1036
bin	0.0003477408	972
bin	0.0003485952	993
bin	0.0003494496	980
bin	0.000350304	1042
bin	0.0003511584	1077
bin	0.0003520128	1067
bin	0.0003528672	1057
bin	0.0003537216	1129
bin	0.000354576	973
bin	0.0003554304	1074
bin	0.0003562848	1034
bin	0.0003571392	1067
bin	0.0003579936	1006
bin	0.000358848	1029
bin	0.0003597024	994
bin	0.0003605568	995
bin	0.0003614112	1063
bin	0.0003622656	992
bin	0.00036312	1057
bin	0.0003639744	1053
bin	0.0003648288	1024
bin	0.0003656832	988
bin	0.0003665376	1077
bin	0.000367392	1047
bin	0.0003682464	1091
bin	0.0003691008	1097
bin	0.0003699552	1065
bin	0.0003708096	1059
bin	0.000371664	1057
bin	0.0003725184	1107
bin	0.0003733728	1057
bin	0.0003742272	1055
bin	0.0003750816	1106
bin	0.000375936	1104
bin	0.0003767904	1076
bin	0.0003776448	1075
bin	0.0003784992	1015
bin	0.0003793536	1084
bin	0.000380208	1091
bin	0.0003810624	1048
bin	0.0003819168	1079
bin	0.0003827712	1033
bin	0.0003836256	1057
bin	0.00038448	981
bin	0.0003853344	1007
bin	0.0003861888	944
bin	0.0003870432	913
bin	0.0003878976	941
bin	0.000388752	912
bin	0.0003896064	914
bin	0.0003904608	948
bin	0.0003913152	943
bin	0.0003921696	925
bin	0.000393024	898
bin	0.0003938784	903
bin	0.0003947328	875
bin	0.0003955872	888
bin	0.0003964416	883
bin	0.000397296	868
bin	0.0003981504	856
bin	0.0003990048	860
bin	0.0003998592	893
bin	0.0004007136	977
bin	0.000401568	930
bin	0.0004024224	895
bin	0.0004032768	892
bin	0.0004041312	924
bin	0.0004049856	909
bin	0.00040584	873
bin	0.0004066944	864
bin	0.0004075488	854
bin	0.0004084032	863
bin	0.0004092576	877
bin	0.000410112	858
bin	0.0004109664	897
bin	0.0004118208	844
bin	0.0004126752	897
bin	0.0004135296	913
bin	0.000414384	909
bin	0.0004152384	933
bin	0.0004160928	942
bin	0.0004169472	851
bin	0.0004178016	935
bin	0.000418656	902
bin	0.0004195104	883
bin	0.0004203648	880
bin	0.0004212192	895
bin	0.0004220736	914
bin	0.000422928	893
bin	0.0004237824	887
bin	0.0004246368	873
bin	0.0004254912	920
bin	0.0004263456	874
bin	0.0004272	1578003
