version 2
run Bitcomplement-15-20120709-19:37:01-24884
attr alg 3
attr buf 8
attr configname Bitcomplement
attr datetime 20120709-19:37:01
attr delta 0.2
attr experiment Bitcomplement
attr ext true
attr inifile altro.ini
attr iterationvars "$buf=8, $ext=true, $ofedge=2, $delta=0.2, $alg=3"
attr iterationvars2 "$buf=8, $ext=true, $ofedge=2, $delta=0.2, $alg=3, $repetition=0"
attr measurement "$buf=8, $ext=true, $ofedge=2, $delta=0.2, $alg=3"
attr network Torus3d_bub
attr ofedge 2
attr processid 24884
attr repetition 0
attr replication #0
attr resultdir altro-results
attr runnumber 15
attr seedset 15

scalar . 	alg 	3
scalar . 	buf 	8
scalar . 	delta 	0.2
scalar . 	ofedge 	2
scalar Torus3d_bub.timer 	#endTime 	0.003954793994429
scalar Torus3d_bub.timer 	#totalHops 	91810341
scalar Torus3d_bub.timer 	#totalPacks 	6291456
scalar Torus3d_bub.timer 	#totalDerouted 	2485163
scalar Torus3d_bub.timer 	#totalOutFlanked 	1114572
scalar Torus3d_bub.timer 	#totalCQRed 	1370591
scalar Torus3d_bub.timer 	#LB 	0.000786432
scalar Torus3d_bub.timer 	#ratio 	0.19885536417518
statistic Torus3d_bub.timer 	"Hop Times"
field count 6291456
field mean 4.1337015743739e-06
field stddev 3.9878123259942e-06
field sum 26.007001572304
field sqrsum 0.00020755597225262
field min 4.24148105e-07
field max 0.000737688109575
bin	-INF	0
bin	0	0
bin	7.12e-08	0
bin	1.424e-07	0
bin	2.136e-07	0
bin	2.848e-07	0
bin	3.56e-07	1
bin	4.272e-07	1737
bin	4.984e-07	19255
bin	5.696e-07	39863
bin	6.408e-07	36740
bin	7.12e-07	42454
bin	7.832e-07	49732
bin	8.544e-07	61386
bin	9.256e-07	75377
bin	9.968e-07	84765
bin	1.068e-06	90597
bin	1.1392e-06	93584
bin	1.2104e-06	97227
bin	1.2816e-06	97051
bin	1.3528e-06	97505
bin	1.424e-06	96822
bin	1.4952e-06	96901
bin	1.5664e-06	94085
bin	1.6376e-06	92987
bin	1.7088e-06	90247
bin	1.78e-06	88677
bin	1.8512e-06	88015
bin	1.9224e-06	87826
bin	1.9936e-06	89247
bin	2.0648e-06	89935
bin	2.136e-06	90537
bin	2.2072e-06	90057
bin	2.2784e-06	89626
bin	2.3496e-06	87588
bin	2.4208e-06	87492
bin	2.492e-06	85662
bin	2.5632e-06	84274
bin	2.6344e-06	83067
bin	2.7056e-06	81782
bin	2.7768e-06	81808
bin	2.848e-06	80364
bin	2.9192e-06	79262
bin	2.9904e-06	79017
bin	3.0616e-06	78638
bin	3.1328e-06	77871
bin	3.204e-06	76998
bin	3.2752e-06	76949
bin	3.3464e-06	76011
bin	3.4176e-06	75186
bin	3.4888e-06	73210
bin	3.56e-06	73065
bin	3.6312e-06	71439
bin	3.7024e-06	69468
bin	3.7736e-06	68843
bin	3.8448e-06	66515
bin	3.916e-06	65829
bin	3.9872e-06	63776
bin	4.0584e-06	62926
bin	4.1296e-06	60672
bin	4.2008e-06	60156
bin	4.272e-06	57848
bin	4.3432e-06	57046
bin	4.4144e-06	55415
bin	4.4856e-06	53610
bin	4.5568e-06	52267
bin	4.628e-06	51773
bin	4.6992e-06	50191
bin	4.7704e-06	48728
bin	4.8416e-06	47933
bin	4.9128e-06	46114
bin	4.984e-06	45259
bin	5.0552e-06	43572
bin	5.1264e-06	42851
bin	5.1976e-06	41489
bin	5.2688e-06	40393
bin	5.34e-06	39166
bin	5.4112e-06	38270
bin	5.4824e-06	37043
bin	5.5536e-06	35795
bin	5.6248e-06	34711
bin	5.696e-06	33687
bin	5.7672e-06	33186
bin	5.8384e-06	31397
bin	5.9096e-06	30527
bin	5.9808e-06	29983
bin	6.052e-06	28809
bin	6.1232e-06	28039
bin	6.1944e-06	27452
bin	6.2656e-06	26546
bin	6.3368e-06	26226
bin	6.408e-06	25697
bin	6.4792e-06	24592
bin	6.5504e-06	24201
bin	6.6216e-06	23114
bin	6.6928e-06	22591
bin	6.764e-06	22044
bin	6.8352e-06	21403
bin	6.9064e-06	20580
bin	6.9776e-06	20109
bin	7.0488e-06	19267
bin	7.12e-06	19233
bin	7.1912e-06	18672
bin	7.2624e-06	18087
bin	7.3336e-06	17604
bin	7.4048e-06	17073
bin	7.476e-06	16751
bin	7.5472e-06	15923
bin	7.6184e-06	15725
bin	7.6896e-06	15122
bin	7.7608e-06	15088
bin	7.832e-06	14184
bin	7.9032e-06	13976
bin	7.9744e-06	13622
bin	8.0456e-06	13389
bin	8.1168e-06	12868
bin	8.188e-06	12259
bin	8.2592e-06	11991
bin	8.3304e-06	10850
bin	8.4016e-06	10961
bin	8.4728e-06	10446
bin	8.544e-06	10319
bin	8.6152e-06	9639
bin	8.6864e-06	9598
bin	8.7576e-06	9565
bin	8.8288e-06	8995
bin	8.9e-06	8989
bin	8.9712e-06	8627
bin	9.0424e-06	8734
bin	9.1136e-06	8063
bin	9.1848e-06	8281
bin	9.256e-06	7941
bin	9.3272e-06	7970
bin	9.3984e-06	7580
bin	9.4696e-06	7476
bin	9.5408e-06	6878
bin	9.612e-06	6519
bin	9.6832e-06	6379
bin	9.7544e-06	5996
bin	9.8256e-06	6162
bin	9.8968e-06	5753
bin	9.968e-06	5854
bin	1.00392e-05	5718
bin	1.01104e-05	5775
bin	1.01816e-05	5447
bin	1.02528e-05	5416
bin	1.0324e-05	5219
bin	1.03952e-05	5248
bin	1.04664e-05	5157
bin	1.05376e-05	5008
bin	1.06088e-05	5039
bin	1.068e-05	4875
bin	1.07512e-05	4650
bin	1.08224e-05	4602
bin	1.08936e-05	4383
bin	1.09648e-05	4236
bin	1.1036e-05	4078
bin	1.11072e-05	4036
bin	1.11784e-05	3883
bin	1.12496e-05	3566
bin	1.13208e-05	3343
bin	1.1392e-05	3266
bin	1.14632e-05	3031
bin	1.15344e-05	3009
bin	1.16056e-05	2914
bin	1.16768e-05	2802
bin	1.1748e-05	2717
bin	1.18192e-05	2616
bin	1.18904e-05	2563
bin	1.19616e-05	2570
bin	1.20328e-05	2571
bin	1.2104e-05	2345
bin	1.21752e-05	2386
bin	1.22464e-05	2397
bin	1.23176e-05	2336
bin	1.23888e-05	2368
bin	1.246e-05	2449
bin	1.25312e-05	2449
bin	1.26024e-05	2461
bin	1.26736e-05	2367
bin	1.27448e-05	2517
bin	1.2816e-05	2402
bin	1.28872e-05	2398
bin	1.29584e-05	2451
bin	1.30296e-05	2412
bin	1.31008e-05	2420
bin	1.3172e-05	2424
bin	1.32432e-05	2385
bin	1.33144e-05	2313
bin	1.33856e-05	2401
bin	1.34568e-05	2241
bin	1.3528e-05	2303
bin	1.35992e-05	2151
bin	1.36704e-05	2073
bin	1.37416e-05	2020
bin	1.38128e-05	1884
bin	1.3884e-05	1804
bin	1.39552e-05	1699
bin	1.40264e-05	1586
bin	1.40976e-05	1469
bin	1.41688e-05	1388
bin	1.424e-05	1260
bin	1.43112e-05	1282
bin	1.43824e-05	1176
bin	1.44536e-05	1128
bin	1.45248e-05	1117
bin	1.4596e-05	1090
bin	1.46672e-05	1067
bin	1.47384e-05	999
bin	1.48096e-05	983
bin	1.48808e-05	961
bin	1.4952e-05	895
bin	1.50232e-05	896
bin	1.50944e-05	872
bin	1.51656e-05	778
bin	1.52368e-05	805
bin	1.5308e-05	799
bin	1.53792e-05	837
bin	1.54504e-05	852
bin	1.55216e-05	796
bin	1.55928e-05	794
bin	1.5664e-05	787
bin	1.57352e-05	778
bin	1.58064e-05	784
bin	1.58776e-05	819
bin	1.59488e-05	725
bin	1.602e-05	809
bin	1.60912e-05	835
bin	1.61624e-05	837
bin	1.62336e-05	799
bin	1.63048e-05	880
bin	1.6376e-05	865
bin	1.64472e-05	870
bin	1.65184e-05	912
bin	1.65896e-05	847
bin	1.66608e-05	896
bin	1.6732e-05	850
bin	1.68032e-05	978
bin	1.68744e-05	932
bin	1.69456e-05	889
bin	1.70168e-05	888
bin	1.7088e-05	887
bin	1.71592e-05	895
bin	1.72304e-05	960
bin	1.73016e-05	951
bin	1.73728e-05	970
bin	1.7444e-05	1043
bin	1.75152e-05	849
bin	1.75864e-05	977
bin	1.76576e-05	946
bin	1.77288e-05	915
bin	1.78e-05	795
bin	1.78712e-05	907
bin	1.79424e-05	827
bin	1.80136e-05	794
bin	1.80848e-05	840
bin	1.8156e-05	764
bin	1.82272e-05	898
bin	1.82984e-05	631
bin	1.83696e-05	745
bin	1.84408e-05	752
bin	1.8512e-05	646
bin	1.85832e-05	657
bin	1.86544e-05	795
bin	1.87256e-05	659
bin	1.87968e-05	680
bin	1.8868e-05	722
bin	1.89392e-05	621
bin	1.90104e-05	719
bin	1.90816e-05	526
bin	1.91528e-05	643
bin	1.9224e-05	751
bin	1.92952e-05	618
bin	1.93664e-05	640
bin	1.94376e-05	695
bin	1.95088e-05	586
bin	1.958e-05	598
bin	1.96512e-05	690
bin	1.97224e-05	531
bin	1.97936e-05	605
bin	1.98648e-05	485
bin	1.9936e-05	554
bin	2.00072e-05	572
bin	2.00784e-05	466
bin	2.01496e-05	484
bin	2.02208e-05	557
bin	2.0292e-05	470
bin	2.03632e-05	512
bin	2.04344e-05	549
bin	2.05056e-05	464
bin	2.05768e-05	526
bin	2.0648e-05	407
bin	2.07192e-05	388
bin	2.07904e-05	455
bin	2.08616e-05	354
bin	2.09328e-05	373
bin	2.1004e-05	345
bin	2.10752e-05	289
bin	2.11464e-05	323
bin	2.12176e-05	345
bin	2.12888e-05	285
bin	2.136e-05	317
bin	2.14312e-05	289
bin	2.15024e-05	239
bin	2.15736e-05	278
bin	2.16448e-05	257
bin	2.1716e-05	243
bin	2.17872e-05	227
bin	2.18584e-05	213
bin	2.19296e-05	243
bin	2.20008e-05	221
bin	2.2072e-05	225
bin	2.21432e-05	202
bin	2.22144e-05	174
bin	2.22856e-05	198
bin	2.23568e-05	205
bin	2.2428e-05	206
bin	2.24992e-05	164
bin	2.25704e-05	182
bin	2.26416e-05	160
bin	2.27128e-05	142
bin	2.2784e-05	195
bin	2.28552e-05	162
bin	2.29264e-05	150
bin	2.29976e-05	162
bin	2.30688e-05	131
bin	2.314e-05	177
bin	2.32112e-05	164
bin	2.32824e-05	166
bin	2.33536e-05	169
bin	2.34248e-05	169
bin	2.3496e-05	174
bin	2.35672e-05	175
bin	2.36384e-05	187
bin	2.37096e-05	197
bin	2.37808e-05	203
bin	2.3852e-05	202
bin	2.39232e-05	220
bin	2.39944e-05	215
bin	2.40656e-05	194
bin	2.41368e-05	207
bin	2.4208e-05	189
bin	2.42792e-05	231
bin	2.43504e-05	233
bin	2.44216e-05	237
bin	2.44928e-05	234
bin	2.4564e-05	220
bin	2.46352e-05	232
bin	2.47064e-05	230
bin	2.47776e-05	226
bin	2.48488e-05	195
bin	2.492e-05	206
bin	2.49912e-05	183
bin	2.50624e-05	172
bin	2.51336e-05	140
bin	2.52048e-05	132
bin	2.5276e-05	149
bin	2.53472e-05	130
bin	2.54184e-05	114
bin	2.54896e-05	83
bin	2.55608e-05	93
bin	2.5632e-05	74
bin	2.57032e-05	81
bin	2.57744e-05	86
bin	2.58456e-05	69
bin	2.59168e-05	84
bin	2.5988e-05	89
bin	2.60592e-05	65
bin	2.61304e-05	71
bin	2.62016e-05	58
bin	2.62728e-05	68
bin	2.6344e-05	75
bin	2.64152e-05	65
bin	2.64864e-05	67
bin	2.65576e-05	46
bin	2.66288e-05	58
bin	2.67e-05	83
bin	2.67712e-05	84
bin	2.68424e-05	63
bin	2.69136e-05	88
bin	2.69848e-05	66
bin	2.7056e-05	86
bin	2.71272e-05	94
bin	2.71984e-05	93
bin	2.72696e-05	102
bin	2.73408e-05	92
bin	2.7412e-05	78
bin	2.74832e-05	87
bin	2.75544e-05	67
bin	2.76256e-05	63
bin	2.76968e-05	72
bin	2.7768e-05	48
bin	2.78392e-05	62
bin	2.79104e-05	51
bin	2.79816e-05	50
bin	2.80528e-05	52
bin	2.8124e-05	30
bin	2.81952e-05	39
bin	2.82664e-05	47
bin	2.83376e-05	46
bin	2.84088e-05	46
bin	2.848e-05	42
bin	2.85512e-05	31
bin	2.86224e-05	40
bin	2.86936e-05	43
bin	2.87648e-05	49
bin	2.8836e-05	51
bin	2.89072e-05	23
bin	2.89784e-05	40
bin	2.90496e-05	55
bin	2.91208e-05	39
bin	2.9192e-05	39
bin	2.92632e-05	46
bin	2.93344e-05	16
bin	2.94056e-05	44
bin	2.94768e-05	50
bin	2.9548e-05	60
bin	2.96192e-05	44
bin	2.96904e-05	19
bin	2.97616e-05	66
bin	2.98328e-05	62
bin	2.9904e-05	61
bin	2.99752e-05	68
bin	3.00464e-05	76
bin	3.01176e-05	17
bin	3.01888e-05	90
bin	3.026e-05	85
bin	3.03312e-05	92
bin	3.04024e-05	72
bin	3.04736e-05	31
bin	3.05448e-05	76
bin	3.0616e-05	92
bin	3.06872e-05	100
bin	3.07584e-05	100
bin	3.08296e-05	104
bin	3.09008e-05	35
bin	3.0972e-05	113
bin	3.10432e-05	129
bin	3.11144e-05	116
bin	3.11856e-05	117
bin	3.12568e-05	58
bin	3.1328e-05	113
bin	3.13992e-05	140
bin	3.14704e-05	129
bin	3.15416e-05	111
bin	3.16128e-05	138
bin	3.1684e-05	72
bin	3.17552e-05	147
bin	3.18264e-05	140
bin	3.18976e-05	156
bin	3.19688e-05	142
bin	3.204e-05	98
bin	3.21112e-05	179
bin	3.21824e-05	191
bin	3.22536e-05	165
bin	3.23248e-05	150
bin	3.2396e-05	166
bin	3.24672e-05	102
bin	3.25384e-05	170
bin	3.26096e-05	189
bin	3.26808e-05	185
bin	3.2752e-05	173
bin	3.28232e-05	93
bin	3.28944e-05	179
bin	3.29656e-05	174
bin	3.30368e-05	190
bin	3.3108e-05	200
bin	3.31792e-05	208
bin	3.32504e-05	132
bin	3.33216e-05	219
bin	3.33928e-05	206
bin	3.3464e-05	205
bin	3.35352e-05	165
bin	3.36064e-05	144
bin	3.36776e-05	237
bin	3.37488e-05	230
bin	3.382e-05	189
bin	3.38912e-05	208
bin	3.39624e-05	212
bin	3.40336e-05	139
bin	3.41048e-05	226
bin	3.4176e-05	210
bin	3.42472e-05	225
bin	3.43184e-05	195
bin	3.43896e-05	145
bin	3.44608e-05	199
bin	3.4532e-05	190
bin	3.46032e-05	209
bin	3.46744e-05	162
bin	3.47456e-05	176
bin	3.48168e-05	113
bin	3.4888e-05	154
bin	3.49592e-05	166
bin	3.50304e-05	183
bin	3.51016e-05	125
bin	3.51728e-05	132
bin	3.5244e-05	138
bin	3.53152e-05	163
bin	3.53864e-05	138
bin	3.54576e-05	129
bin	3.55288e-05	120
bin	3.56e-05	7198
statistic Torus3d_bub.timer 	"Life Times"
field count 6291456
field mean 5.2942904364755e-05
field stddev 2.8897933473481e-05
field sum 333.08795332307
field sqrsum 0.022888578330946
field min 1.455665706e-06
field max 0.002213064328725
bin	-INF	0
bin	0	0
bin	8.544e-07	409
bin	1.7088e-06	2750
bin	2.5632e-06	5486
bin	3.4176e-06	11417
bin	4.272e-06	15984
bin	5.1264e-06	19271
bin	5.9808e-06	20263
bin	6.8352e-06	23708
bin	7.6896e-06	25273
bin	8.544e-06	30789
bin	9.3984e-06	34568
bin	1.02528e-05	40978
bin	1.11072e-05	45415
bin	1.19616e-05	48333
bin	1.2816e-05	48083
bin	1.36704e-05	50296
bin	1.45248e-05	50776
bin	1.53792e-05	50903
bin	1.62336e-05	50634
bin	1.7088e-05	50520
bin	1.79424e-05	51752
bin	1.87968e-05	50285
bin	1.96512e-05	49314
bin	2.05056e-05	50499
bin	2.136e-05	53165
bin	2.22144e-05	53106
bin	2.30688e-05	54301
bin	2.39232e-05	55591
bin	2.47776e-05	57368
bin	2.5632e-05	57325
bin	2.64864e-05	59609
bin	2.73408e-05	61373
bin	2.81952e-05	61333
bin	2.90496e-05	61664
bin	2.9904e-05	63209
bin	3.07584e-05	64661
bin	3.16128e-05	65981
bin	3.24672e-05	67106
bin	3.33216e-05	68048
bin	3.4176e-05	69203
bin	3.50304e-05	69450
bin	3.58848e-05	70978
bin	3.67392e-05	72692
bin	3.75936e-05	71505
bin	3.8448e-05	71579
bin	3.93024e-05	72714
bin	4.01568e-05	73456
bin	4.10112e-05	73436
bin	4.18656e-05	72819
bin	4.272e-05	72888
bin	4.35744e-05	72920
bin	4.44288e-05	72707
bin	4.52832e-05	73218
bin	4.61376e-05	74193
bin	4.6992e-05	73364
bin	4.78464e-05	73092
bin	4.87008e-05	74442
bin	4.95552e-05	73871
bin	5.04096e-05	74340
bin	5.1264e-05	73891
bin	5.21184e-05	72641
bin	5.29728e-05	72178
bin	5.38272e-05	71977
bin	5.46816e-05	72277
bin	5.5536e-05	71067
bin	5.63904e-05	70357
bin	5.72448e-05	69433
bin	5.80992e-05	68942
bin	5.89536e-05	68540
bin	5.9808e-05	68523
bin	6.06624e-05	67526
bin	6.15168e-05	66882
bin	6.23712e-05	66914
bin	6.32256e-05	66270
bin	6.408e-05	65417
bin	6.49344e-05	64668
bin	6.57888e-05	64070
bin	6.66432e-05	62904
bin	6.74976e-05	61708
bin	6.8352e-05	60685
bin	6.92064e-05	60062
bin	7.00608e-05	58695
bin	7.09152e-05	56983
bin	7.17696e-05	56015
bin	7.2624e-05	55024
bin	7.34784e-05	53590
bin	7.43328e-05	53433
bin	7.51872e-05	51492
bin	7.60416e-05	49850
bin	7.6896e-05	48412
bin	7.77504e-05	47335
bin	7.86048e-05	46722
bin	7.94592e-05	45104
bin	8.03136e-05	43665
bin	8.1168e-05	42963
bin	8.20224e-05	41305
bin	8.28768e-05	40047
bin	8.37312e-05	39332
bin	8.45856e-05	37789
bin	8.544e-05	36539
bin	8.62944e-05	34554
bin	8.71488e-05	33475
bin	8.80032e-05	32505
bin	8.88576e-05	31268
bin	8.9712e-05	29965
bin	9.05664e-05	28543
bin	9.14208e-05	27400
bin	9.22752e-05	26248
bin	9.31296e-05	25344
bin	9.3984e-05	23914
bin	9.48384e-05	22714
bin	9.56928e-05	21779
bin	9.65472e-05	20529
bin	9.74016e-05	19606
bin	9.8256e-05	18364
bin	9.91104e-05	16901
bin	9.99648e-05	16259
bin	0.0001008192	15583
bin	0.0001016736	14925
bin	0.000102528	14187
bin	0.0001033824	13507
bin	0.0001042368	12345
bin	0.0001050912	11546
bin	0.0001059456	11255
bin	0.0001068	10509
bin	0.0001076544	10323
bin	0.0001085088	9804
bin	0.0001093632	9211
bin	0.0001102176	8913
bin	0.000111072	8693
bin	0.0001119264	8297
bin	0.0001127808	8274
bin	0.0001136352	8142
bin	0.0001144896	8043
bin	0.000115344	7800
bin	0.0001161984	7612
bin	0.0001170528	7399
bin	0.0001179072	7346
bin	0.0001187616	7086
bin	0.000119616	6678
bin	0.0001204704	6366
bin	0.0001213248	6174
bin	0.0001221792	5853
bin	0.0001230336	5336
bin	0.000123888	4342
bin	0.0001247424	3432
bin	0.0001255968	2679
bin	0.0001264512	2108
bin	0.0001273056	1637
bin	0.00012816	1159
bin	0.0001290144	875
bin	0.0001298688	685
bin	0.0001307232	514
bin	0.0001315776	405
bin	0.000132432	323
bin	0.0001332864	261
bin	0.0001341408	231
bin	0.0001349952	189
bin	0.0001358496	174
bin	0.000136704	153
bin	0.0001375584	122
bin	0.0001384128	90
bin	0.0001392672	45
bin	0.0001401216	32
bin	0.000140976	30
bin	0.0001418304	27
bin	0.0001426848	15
bin	0.0001435392	10
bin	0.0001443936	17
bin	0.000145248	19
bin	0.0001461024	19
bin	0.0001469568	16
bin	0.0001478112	13
bin	0.0001486656	14
bin	0.00014952	22
bin	0.0001503744	19
bin	0.0001512288	9
bin	0.0001520832	12
bin	0.0001529376	10
bin	0.000153792	18
bin	0.0001546464	16
bin	0.0001555008	16
bin	0.0001563552	16
bin	0.0001572096	14
bin	0.000158064	17
bin	0.0001589184	8
bin	0.0001597728	9
bin	0.0001606272	11
bin	0.0001614816	11
bin	0.000162336	8
bin	0.0001631904	14
bin	0.0001640448	16
bin	0.0001648992	12
bin	0.0001657536	10
bin	0.000166608	8
bin	0.0001674624	16
bin	0.0001683168	23
bin	0.0001691712	17
bin	0.0001700256	17
bin	0.00017088	30
bin	0.0001717344	17
bin	0.0001725888	23
bin	0.0001734432	30
bin	0.0001742976	23
bin	0.000175152	23
bin	0.0001760064	25
bin	0.0001768608	26
bin	0.0001777152	22
bin	0.0001785696	36
bin	0.000179424	29
bin	0.0001802784	39
bin	0.0001811328	31
bin	0.0001819872	47
bin	0.0001828416	29
bin	0.000183696	36
bin	0.0001845504	36
bin	0.0001854048	30
bin	0.0001862592	41
bin	0.0001871136	47
bin	0.000187968	40
bin	0.0001888224	56
bin	0.0001896768	46
bin	0.0001905312	43
bin	0.0001913856	43
bin	0.00019224	39
bin	0.0001930944	58
bin	0.0001939488	44
bin	0.0001948032	53
bin	0.0001956576	45
bin	0.000196512	46
bin	0.0001973664	56
bin	0.0001982208	59
bin	0.0001990752	48
bin	0.0001999296	67
bin	0.000200784	65
bin	0.0002016384	54
bin	0.0002024928	71
bin	0.0002033472	65
bin	0.0002042016	65
bin	0.000205056	72
bin	0.0002059104	57
bin	0.0002067648	74
bin	0.0002076192	67
bin	0.0002084736	57
bin	0.000209328	68
bin	0.0002101824	58
bin	0.0002110368	71
bin	0.0002118912	72
bin	0.0002127456	59
bin	0.0002136	76
bin	0.0002144544	71
bin	0.0002153088	82
bin	0.0002161632	83
bin	0.0002170176	97
bin	0.000217872	86
bin	0.0002187264	85
bin	0.0002195808	98
bin	0.0002204352	86
bin	0.0002212896	100
bin	0.000222144	98
bin	0.0002229984	96
bin	0.0002238528	117
bin	0.0002247072	112
bin	0.0002255616	114
bin	0.000226416	111
bin	0.0002272704	120
bin	0.0002281248	128
bin	0.0002289792	149
bin	0.0002298336	133
bin	0.000230688	126
bin	0.0002315424	169
bin	0.0002323968	190
bin	0.0002332512	190
bin	0.0002341056	229
bin	0.00023496	208
bin	0.0002358144	220
bin	0.0002366688	244
bin	0.0002375232	269
bin	0.0002383776	293
bin	0.000239232	288
bin	0.0002400864	318
bin	0.0002409408	371
bin	0.0002417952	420
bin	0.0002426496	431
bin	0.000243504	416
bin	0.0002443584	462
bin	0.0002452128	468
bin	0.0002460672	450
bin	0.0002469216	418
bin	0.000247776	321
bin	0.0002486304	279
bin	0.0002494848	215
bin	0.0002503392	176
bin	0.0002511936	111
bin	0.000252048	88
bin	0.0002529024	78
bin	0.0002537568	60
bin	0.0002546112	51
bin	0.0002554656	40
bin	0.00025632	25
bin	0.0002571744	19
bin	0.0002580288	25
bin	0.0002588832	24
bin	0.0002597376	17
bin	0.000260592	22
bin	0.0002614464	11
bin	0.0002623008	8
bin	0.0002631552	5
bin	0.0002640096	8
bin	0.000264864	6
bin	0.0002657184	0
bin	0.0002665728	2
bin	0.0002674272	1
bin	0.0002682816	4
bin	0.000269136	4
bin	0.0002699904	3
bin	0.0002708448	1
bin	0.0002716992	2
bin	0.0002725536	1
bin	0.000273408	0
bin	0.0002742624	2
bin	0.0002751168	0
bin	0.0002759712	0
bin	0.0002768256	0
bin	0.00027768	0
bin	0.0002785344	3
bin	0.0002793888	1
bin	0.0002802432	1
bin	0.0002810976	1
bin	0.000281952	0
bin	0.0002828064	0
bin	0.0002836608	1
bin	0.0002845152	0
bin	0.0002853696	0
bin	0.000286224	1
bin	0.0002870784	0
bin	0.0002879328	0
bin	0.0002887872	0
bin	0.0002896416	1
bin	0.000290496	1
bin	0.0002913504	0
bin	0.0002922048	2
bin	0.0002930592	1
bin	0.0002939136	4
bin	0.000294768	5
bin	0.0002956224	3
bin	0.0002964768	2
bin	0.0002973312	1
bin	0.0002981856	1
bin	0.00029904	4
bin	0.0002998944	1
bin	0.0003007488	1
bin	0.0003016032	1
bin	0.0003024576	2
bin	0.000303312	1
bin	0.0003041664	7
bin	0.0003050208	3
bin	0.0003058752	3
bin	0.0003067296	3
bin	0.000307584	6
bin	0.0003084384	5
bin	0.0003092928	4
bin	0.0003101472	3
bin	0.0003110016	4
bin	0.000311856	5
bin	0.0003127104	3
bin	0.0003135648	5
bin	0.0003144192	2
bin	0.0003152736	7
bin	0.000316128	2
bin	0.0003169824	4
bin	0.0003178368	6
bin	0.0003186912	4
bin	0.0003195456	5
bin	0.0003204	1
bin	0.0003212544	5
bin	0.0003221088	3
bin	0.0003229632	4
bin	0.0003238176	7
bin	0.000324672	5
bin	0.0003255264	7
bin	0.0003263808	8
bin	0.0003272352	8
bin	0.0003280896	7
bin	0.000328944	7
bin	0.0003297984	9
bin	0.0003306528	9
bin	0.0003315072	5
bin	0.0003323616	5
bin	0.000333216	7
bin	0.0003340704	11
bin	0.0003349248	11
bin	0.0003357792	8
bin	0.0003366336	9
bin	0.000337488	9
bin	0.0003383424	8
bin	0.0003391968	10
bin	0.0003400512	7
bin	0.0003409056	4
bin	0.00034176	9
bin	0.0003426144	7
bin	0.0003434688	9
bin	0.0003443232	10
bin	0.0003451776	11
bin	0.000346032	16
bin	0.0003468864	12
bin	0.0003477408	5
bin	0.0003485952	8
bin	0.0003494496	14
bin	0.000350304	10
bin	0.0003511584	14
bin	0.0003520128	23
bin	0.0003528672	20
bin	0.0003537216	18
bin	0.000354576	26
bin	0.0003554304	18
bin	0.0003562848	19
bin	0.0003571392	30
bin	0.0003579936	30
bin	0.000358848	37
bin	0.0003597024	41
bin	0.0003605568	46
bin	0.0003614112	52
bin	0.0003622656	55
bin	0.00036312	77
bin	0.0003639744	73
bin	0.0003648288	77
bin	0.0003656832	92
bin	0.0003665376	103
bin	0.000367392	125
bin	0.0003682464	122
bin	0.0003691008	126
bin	0.0003699552	128
bin	0.0003708096	106
bin	0.000371664	87
bin	0.0003725184	46
bin	0.0003733728	44
bin	0.0003742272	29
bin	0.0003750816	24
bin	0.000375936	23
bin	0.0003767904	15
bin	0.0003776448	17
bin	0.0003784992	17
bin	0.0003793536	17
bin	0.000380208	18
bin	0.0003810624	17
bin	0.0003819168	14
bin	0.0003827712	5
bin	0.0003836256	15
bin	0.00038448	17
bin	0.0003853344	11
bin	0.0003861888	9
bin	0.0003870432	4
bin	0.0003878976	2
bin	0.000388752	3
bin	0.0003896064	4
bin	0.0003904608	6
bin	0.0003913152	0
bin	0.0003921696	1
bin	0.000393024	0
bin	0.0003938784	1
bin	0.0003947328	0
bin	0.0003955872	0
bin	0.0003964416	2
bin	0.000397296	3
bin	0.0003981504	1
bin	0.0003990048	1
bin	0.0003998592	1
bin	0.0004007136	0
bin	0.000401568	0
bin	0.0004024224	0
bin	0.0004032768	0
bin	0.0004041312	1
bin	0.0004049856	0
bin	0.00040584	0
bin	0.0004066944	1
bin	0.0004075488	0
bin	0.0004084032	0
bin	0.0004092576	1
bin	0.000410112	0
bin	0.0004109664	0
bin	0.0004118208	0
bin	0.0004126752	0
bin	0.0004135296	1
bin	0.000414384	2
bin	0.0004152384	0
bin	0.0004160928	0
bin	0.0004169472	1
bin	0.0004178016	2
bin	0.000418656	1
bin	0.0004195104	1
bin	0.0004203648	1
bin	0.0004212192	0
bin	0.0004220736	0
bin	0.000422928	2
bin	0.0004237824	1
bin	0.0004246368	0
bin	0.0004254912	0
bin	0.0004263456	2
bin	0.0004272	753
