version 2
run Bitcomplement-11-20120709-19:33:47-24880
attr alg 3
attr buf 8
attr configname Bitcomplement
attr datetime 20120709-19:33:47
attr delta 0.6
attr experiment Bitcomplement
attr ext true
attr inifile altro.ini
attr iterationvars "$buf=8, $ext=true, $ofedge=1, $delta=0.6, $alg=3"
attr iterationvars2 "$buf=8, $ext=true, $ofedge=1, $delta=0.6, $alg=3, $repetition=0"
attr measurement "$buf=8, $ext=true, $ofedge=1, $delta=0.6, $alg=3"
attr network Torus3d_bub
attr ofedge 1
attr processid 24880
attr repetition 0
attr replication #0
attr resultdir altro-results
attr runnumber 11
attr seedset 11

scalar . 	alg 	3
scalar . 	buf 	8
scalar . 	delta 	0.6
scalar . 	ofedge 	1
scalar Torus3d_bub.timer 	#endTime 	0.011697044315062
scalar Torus3d_bub.timer 	#totalHops 	99535271
scalar Torus3d_bub.timer 	#totalPacks 	6291456
scalar Torus3d_bub.timer 	#totalDerouted 	4738641
scalar Torus3d_bub.timer 	#totalOutFlanked 	3641160
scalar Torus3d_bub.timer 	#totalCQRed 	1097481
scalar Torus3d_bub.timer 	#LB 	0.000786432
scalar Torus3d_bub.timer 	#ratio 	0.067233394934422
statistic Torus3d_bub.timer 	"Hop Times"
field count 6291456
field mean 0.00036739623913503
field stddev 0.00030876616219466
field sum 2311.4572730835
field sqrsum 1.4490262786664
field min 4.35199999e-07
field max 0.003316904111111
bin	-INF	0
bin	0	0
bin	7.12e-08	0
bin	1.424e-07	0
bin	2.136e-07	0
bin	2.848e-07	0
bin	3.56e-07	0
bin	4.272e-07	121
bin	4.984e-07	1294
bin	5.696e-07	2076
bin	6.408e-07	2210
bin	7.12e-07	2461
bin	7.832e-07	2947
bin	8.544e-07	3425
bin	9.256e-07	4150
bin	9.968e-07	4949
bin	1.068e-06	5550
bin	1.1392e-06	6387
bin	1.2104e-06	7128
bin	1.2816e-06	7472
bin	1.3528e-06	8012
bin	1.424e-06	8349
bin	1.4952e-06	8918
bin	1.5664e-06	8940
bin	1.6376e-06	8983
bin	1.7088e-06	9270
bin	1.78e-06	9317
bin	1.8512e-06	9352
bin	1.9224e-06	9355
bin	1.9936e-06	9454
bin	2.0648e-06	9308
bin	2.136e-06	9102
bin	2.2072e-06	8926
bin	2.2784e-06	8656
bin	2.3496e-06	8643
bin	2.4208e-06	8342
bin	2.492e-06	7984
bin	2.5632e-06	7727
bin	2.6344e-06	7501
bin	2.7056e-06	7176
bin	2.7768e-06	6740
bin	2.848e-06	6414
bin	2.9192e-06	6044
bin	2.9904e-06	5783
bin	3.0616e-06	5410
bin	3.1328e-06	4985
bin	3.204e-06	4694
bin	3.2752e-06	4445
bin	3.3464e-06	4202
bin	3.4176e-06	4016
bin	3.4888e-06	3815
bin	3.56e-06	3690
bin	3.6312e-06	3521
bin	3.7024e-06	3320
bin	3.7736e-06	3173
bin	3.8448e-06	3230
bin	3.916e-06	3150
bin	3.9872e-06	3004
bin	4.0584e-06	2985
bin	4.1296e-06	2834
bin	4.2008e-06	2811
bin	4.272e-06	2793
bin	4.3432e-06	2577
bin	4.4144e-06	2580
bin	4.4856e-06	2591
bin	4.5568e-06	2473
bin	4.628e-06	2358
bin	4.6992e-06	2385
bin	4.7704e-06	2288
bin	4.8416e-06	2230
bin	4.9128e-06	2147
bin	4.984e-06	2138
bin	5.0552e-06	2011
bin	5.1264e-06	1983
bin	5.1976e-06	1850
bin	5.2688e-06	1918
bin	5.34e-06	1813
bin	5.4112e-06	1762
bin	5.4824e-06	1695
bin	5.5536e-06	1652
bin	5.6248e-06	1654
bin	5.696e-06	1642
bin	5.7672e-06	1626
bin	5.8384e-06	1595
bin	5.9096e-06	1615
bin	5.9808e-06	1546
bin	6.052e-06	1626
bin	6.1232e-06	1632
bin	6.1944e-06	1633
bin	6.2656e-06	1558
bin	6.3368e-06	1602
bin	6.408e-06	1568
bin	6.4792e-06	1535
bin	6.5504e-06	1475
bin	6.6216e-06	1408
bin	6.6928e-06	1448
bin	6.764e-06	1439
bin	6.8352e-06	1587
bin	6.9064e-06	1575
bin	6.9776e-06	1476
bin	7.0488e-06	1459
bin	7.12e-06	1409
bin	7.1912e-06	1304
bin	7.2624e-06	1462
bin	7.3336e-06	1442
bin	7.4048e-06	1377
bin	7.476e-06	1402
bin	7.5472e-06	1429
bin	7.6184e-06	1369
bin	7.6896e-06	1377
bin	7.7608e-06	1385
bin	7.832e-06	1389
bin	7.9032e-06	1319
bin	7.9744e-06	1306
bin	8.0456e-06	1328
bin	8.1168e-06	1306
bin	8.188e-06	1320
bin	8.2592e-06	1260
bin	8.3304e-06	1242
bin	8.4016e-06	1300
bin	8.4728e-06	1263
bin	8.544e-06	1295
bin	8.6152e-06	1221
bin	8.6864e-06	1130
bin	8.7576e-06	1167
bin	8.8288e-06	1199
bin	8.9e-06	1189
bin	8.9712e-06	1193
bin	9.0424e-06	1202
bin	9.1136e-06	1225
bin	9.1848e-06	1138
bin	9.256e-06	1111
bin	9.3272e-06	1119
bin	9.3984e-06	1142
bin	9.4696e-06	1178
bin	9.5408e-06	1166
bin	9.612e-06	1121
bin	9.6832e-06	1154
bin	9.7544e-06	1155
bin	9.8256e-06	1185
bin	9.8968e-06	1144
bin	9.968e-06	1153
bin	1.00392e-05	1133
bin	1.01104e-05	1150
bin	1.01816e-05	1180
bin	1.02528e-05	1141
bin	1.0324e-05	1154
bin	1.03952e-05	1096
bin	1.04664e-05	1039
bin	1.05376e-05	1033
bin	1.06088e-05	1101
bin	1.068e-05	1072
bin	1.07512e-05	1099
bin	1.08224e-05	1023
bin	1.08936e-05	999
bin	1.09648e-05	1061
bin	1.1036e-05	1046
bin	1.11072e-05	1018
bin	1.11784e-05	969
bin	1.12496e-05	1085
bin	1.13208e-05	1076
bin	1.1392e-05	1056
bin	1.14632e-05	991
bin	1.15344e-05	1000
bin	1.16056e-05	1041
bin	1.16768e-05	961
bin	1.1748e-05	963
bin	1.18192e-05	949
bin	1.18904e-05	928
bin	1.19616e-05	895
bin	1.20328e-05	933
bin	1.2104e-05	930
bin	1.21752e-05	861
bin	1.22464e-05	933
bin	1.23176e-05	985
bin	1.23888e-05	983
bin	1.246e-05	1026
bin	1.25312e-05	960
bin	1.26024e-05	913
bin	1.26736e-05	995
bin	1.27448e-05	1004
bin	1.2816e-05	1007
bin	1.28872e-05	958
bin	1.29584e-05	949
bin	1.30296e-05	911
bin	1.31008e-05	956
bin	1.3172e-05	932
bin	1.32432e-05	893
bin	1.33144e-05	879
bin	1.33856e-05	899
bin	1.34568e-05	864
bin	1.3528e-05	883
bin	1.35992e-05	854
bin	1.36704e-05	865
bin	1.37416e-05	907
bin	1.38128e-05	890
bin	1.3884e-05	875
bin	1.39552e-05	873
bin	1.40264e-05	895
bin	1.40976e-05	888
bin	1.41688e-05	859
bin	1.424e-05	865
bin	1.43112e-05	827
bin	1.43824e-05	811
bin	1.44536e-05	817
bin	1.45248e-05	819
bin	1.4596e-05	801
bin	1.46672e-05	848
bin	1.47384e-05	818
bin	1.48096e-05	784
bin	1.48808e-05	780
bin	1.4952e-05	786
bin	1.50232e-05	779
bin	1.50944e-05	729
bin	1.51656e-05	737
bin	1.52368e-05	746
bin	1.5308e-05	728
bin	1.53792e-05	752
bin	1.54504e-05	800
bin	1.55216e-05	808
bin	1.55928e-05	829
bin	1.5664e-05	845
bin	1.57352e-05	796
bin	1.58064e-05	823
bin	1.58776e-05	909
bin	1.59488e-05	892
bin	1.602e-05	807
bin	1.60912e-05	750
bin	1.61624e-05	799
bin	1.62336e-05	792
bin	1.63048e-05	708
bin	1.6376e-05	712
bin	1.64472e-05	746
bin	1.65184e-05	772
bin	1.65896e-05	759
bin	1.66608e-05	730
bin	1.6732e-05	738
bin	1.68032e-05	716
bin	1.68744e-05	654
bin	1.69456e-05	686
bin	1.70168e-05	701
bin	1.7088e-05	727
bin	1.71592e-05	743
bin	1.72304e-05	732
bin	1.73016e-05	729
bin	1.73728e-05	784
bin	1.7444e-05	824
bin	1.75152e-05	805
bin	1.75864e-05	765
bin	1.76576e-05	825
bin	1.77288e-05	778
bin	1.78e-05	772
bin	1.78712e-05	807
bin	1.79424e-05	834
bin	1.80136e-05	817
bin	1.80848e-05	826
bin	1.8156e-05	809
bin	1.82272e-05	829
bin	1.82984e-05	805
bin	1.83696e-05	755
bin	1.84408e-05	726
bin	1.8512e-05	784
bin	1.85832e-05	753
bin	1.86544e-05	776
bin	1.87256e-05	685
bin	1.87968e-05	780
bin	1.8868e-05	686
bin	1.89392e-05	672
bin	1.90104e-05	683
bin	1.90816e-05	676
bin	1.91528e-05	642
bin	1.9224e-05	664
bin	1.92952e-05	712
bin	1.93664e-05	731
bin	1.94376e-05	753
bin	1.95088e-05	756
bin	1.958e-05	771
bin	1.96512e-05	808
bin	1.97224e-05	778
bin	1.97936e-05	795
bin	1.98648e-05	775
bin	1.9936e-05	753
bin	2.00072e-05	752
bin	2.00784e-05	678
bin	2.01496e-05	691
bin	2.02208e-05	667
bin	2.0292e-05	623
bin	2.03632e-05	652
bin	2.04344e-05	617
bin	2.05056e-05	630
bin	2.05768e-05	651
bin	2.0648e-05	646
bin	2.07192e-05	613
bin	2.07904e-05	647
bin	2.08616e-05	664
bin	2.09328e-05	679
bin	2.1004e-05	697
bin	2.10752e-05	652
bin	2.11464e-05	672
bin	2.12176e-05	710
bin	2.12888e-05	720
bin	2.136e-05	720
bin	2.14312e-05	681
bin	2.15024e-05	672
bin	2.15736e-05	676
bin	2.16448e-05	704
bin	2.1716e-05	690
bin	2.17872e-05	654
bin	2.18584e-05	646
bin	2.19296e-05	636
bin	2.20008e-05	671
bin	2.2072e-05	677
bin	2.21432e-05	679
bin	2.22144e-05	742
bin	2.22856e-05	783
bin	2.23568e-05	749
bin	2.2428e-05	753
bin	2.24992e-05	715
bin	2.25704e-05	732
bin	2.26416e-05	752
bin	2.27128e-05	748
bin	2.2784e-05	687
bin	2.28552e-05	682
bin	2.29264e-05	644
bin	2.29976e-05	634
bin	2.30688e-05	635
bin	2.314e-05	599
bin	2.32112e-05	590
bin	2.32824e-05	600
bin	2.33536e-05	650
bin	2.34248e-05	617
bin	2.3496e-05	635
bin	2.35672e-05	678
bin	2.36384e-05	718
bin	2.37096e-05	723
bin	2.37808e-05	690
bin	2.3852e-05	715
bin	2.39232e-05	683
bin	2.39944e-05	708
bin	2.40656e-05	690
bin	2.41368e-05	691
bin	2.4208e-05	710
bin	2.42792e-05	682
bin	2.43504e-05	651
bin	2.44216e-05	635
bin	2.44928e-05	637
bin	2.4564e-05	597
bin	2.46352e-05	620
bin	2.47064e-05	629
bin	2.47776e-05	588
bin	2.48488e-05	591
bin	2.492e-05	558
bin	2.49912e-05	531
bin	2.50624e-05	558
bin	2.51336e-05	555
bin	2.52048e-05	597
bin	2.5276e-05	574
bin	2.53472e-05	545
bin	2.54184e-05	577
bin	2.54896e-05	562
bin	2.55608e-05	595
bin	2.5632e-05	569
bin	2.57032e-05	562
bin	2.57744e-05	591
bin	2.58456e-05	571
bin	2.59168e-05	582
bin	2.5988e-05	568
bin	2.60592e-05	571
bin	2.61304e-05	564
bin	2.62016e-05	564
bin	2.62728e-05	583
bin	2.6344e-05	578
bin	2.64152e-05	573
bin	2.64864e-05	574
bin	2.65576e-05	604
bin	2.66288e-05	655
bin	2.67e-05	604
bin	2.67712e-05	560
bin	2.68424e-05	600
bin	2.69136e-05	591
bin	2.69848e-05	613
bin	2.7056e-05	611
bin	2.71272e-05	604
bin	2.71984e-05	586
bin	2.72696e-05	568
bin	2.73408e-05	548
bin	2.7412e-05	593
bin	2.74832e-05	595
bin	2.75544e-05	548
bin	2.76256e-05	536
bin	2.76968e-05	534
bin	2.7768e-05	558
bin	2.78392e-05	573
bin	2.79104e-05	584
bin	2.79816e-05	538
bin	2.80528e-05	553
bin	2.8124e-05	594
bin	2.81952e-05	613
bin	2.82664e-05	621
bin	2.83376e-05	600
bin	2.84088e-05	632
bin	2.848e-05	597
bin	2.85512e-05	612
bin	2.86224e-05	660
bin	2.86936e-05	656
bin	2.87648e-05	594
bin	2.8836e-05	568
bin	2.89072e-05	539
bin	2.89784e-05	547
bin	2.90496e-05	535
bin	2.91208e-05	548
bin	2.9192e-05	578
bin	2.92632e-05	589
bin	2.93344e-05	606
bin	2.94056e-05	627
bin	2.94768e-05	584
bin	2.9548e-05	651
bin	2.96192e-05	626
bin	2.96904e-05	592
bin	2.97616e-05	547
bin	2.98328e-05	541
bin	2.9904e-05	607
bin	2.99752e-05	545
bin	3.00464e-05	589
bin	3.01176e-05	604
bin	3.01888e-05	546
bin	3.026e-05	593
bin	3.03312e-05	585
bin	3.04024e-05	541
bin	3.04736e-05	555
bin	3.05448e-05	587
bin	3.0616e-05	564
bin	3.06872e-05	597
bin	3.07584e-05	607
bin	3.08296e-05	648
bin	3.09008e-05	693
bin	3.0972e-05	659
bin	3.10432e-05	640
bin	3.11144e-05	625
bin	3.11856e-05	628
bin	3.12568e-05	663
bin	3.1328e-05	613
bin	3.13992e-05	597
bin	3.14704e-05	584
bin	3.15416e-05	573
bin	3.16128e-05	532
bin	3.1684e-05	564
bin	3.17552e-05	545
bin	3.18264e-05	517
bin	3.18976e-05	577
bin	3.19688e-05	583
bin	3.204e-05	554
bin	3.21112e-05	579
bin	3.21824e-05	613
bin	3.22536e-05	664
bin	3.23248e-05	652
bin	3.2396e-05	642
bin	3.24672e-05	625
bin	3.25384e-05	629
bin	3.26096e-05	649
bin	3.26808e-05	608
bin	3.2752e-05	629
bin	3.28232e-05	625
bin	3.28944e-05	590
bin	3.29656e-05	595
bin	3.30368e-05	618
bin	3.3108e-05	621
bin	3.31792e-05	587
bin	3.32504e-05	589
bin	3.33216e-05	614
bin	3.33928e-05	577
bin	3.3464e-05	593
bin	3.35352e-05	585
bin	3.36064e-05	531
bin	3.36776e-05	508
bin	3.37488e-05	560
bin	3.382e-05	604
bin	3.38912e-05	596
bin	3.39624e-05	581
bin	3.40336e-05	591
bin	3.41048e-05	582
bin	3.4176e-05	569
bin	3.42472e-05	580
bin	3.43184e-05	578
bin	3.43896e-05	555
bin	3.44608e-05	565
bin	3.4532e-05	549
bin	3.46032e-05	551
bin	3.46744e-05	583
bin	3.47456e-05	552
bin	3.48168e-05	589
bin	3.4888e-05	602
bin	3.49592e-05	583
bin	3.50304e-05	594
bin	3.51016e-05	571
bin	3.51728e-05	565
bin	3.5244e-05	553
bin	3.53152e-05	545
bin	3.53864e-05	546
bin	3.54576e-05	589
bin	3.55288e-05	564
bin	3.56e-05	5599843
statistic Torus3d_bub.timer 	"Life Times"
field count 6291456
field mean 0.0048905246819286
field stddev 0.0027772894953262
field sum 30768.520853268
field sqrsum 199.00232292253
field min 1.463666666e-06
field max 0.011379581315558
bin	-INF	0
bin	0	0
bin	8.544e-07	22
bin	1.7088e-06	129
bin	2.5632e-06	262
bin	3.4176e-06	613
bin	4.272e-06	969
bin	5.1264e-06	1318
bin	5.9808e-06	1289
bin	6.8352e-06	1526
bin	7.6896e-06	1670
bin	8.544e-06	1916
bin	9.3984e-06	2061
bin	1.02528e-05	2299
bin	1.11072e-05	2496
bin	1.19616e-05	2659
bin	1.2816e-05	2872
bin	1.36704e-05	2858
bin	1.45248e-05	2963
bin	1.53792e-05	3115
bin	1.62336e-05	3324
bin	1.7088e-05	3297
bin	1.79424e-05	3479
bin	1.87968e-05	3559
bin	1.96512e-05	3617
bin	2.05056e-05	3743
bin	2.136e-05	3939
bin	2.22144e-05	4047
bin	2.30688e-05	4100
bin	2.39232e-05	4330
bin	2.47776e-05	4570
bin	2.5632e-05	4792
bin	2.64864e-05	4890
bin	2.73408e-05	5054
bin	2.81952e-05	5066
bin	2.90496e-05	5212
bin	2.9904e-05	5341
bin	3.07584e-05	5523
bin	3.16128e-05	5576
bin	3.24672e-05	5614
bin	3.33216e-05	5779
bin	3.4176e-05	5760
bin	3.50304e-05	5902
bin	3.58848e-05	5826
bin	3.67392e-05	6042
bin	3.75936e-05	6160
bin	3.8448e-05	5999
bin	3.93024e-05	6120
bin	4.01568e-05	6090
bin	4.10112e-05	6117
bin	4.18656e-05	5742
bin	4.272e-05	5670
bin	4.35744e-05	5498
bin	4.44288e-05	5399
bin	4.52832e-05	5359
bin	4.61376e-05	5193
bin	4.6992e-05	4957
bin	4.78464e-05	4790
bin	4.87008e-05	4602
bin	4.95552e-05	4346
bin	5.04096e-05	4196
bin	5.1264e-05	3954
bin	5.21184e-05	3739
bin	5.29728e-05	3516
bin	5.38272e-05	3441
bin	5.46816e-05	3331
bin	5.5536e-05	3263
bin	5.63904e-05	3205
bin	5.72448e-05	3023
bin	5.80992e-05	3002
bin	5.89536e-05	2791
bin	5.9808e-05	2626
bin	6.06624e-05	2531
bin	6.15168e-05	2526
bin	6.23712e-05	2302
bin	6.32256e-05	2337
bin	6.408e-05	2317
bin	6.49344e-05	2228
bin	6.57888e-05	2052
bin	6.66432e-05	2018
bin	6.74976e-05	2015
bin	6.8352e-05	1954
bin	6.92064e-05	1919
bin	7.00608e-05	1883
bin	7.09152e-05	1818
bin	7.17696e-05	1795
bin	7.2624e-05	1784
bin	7.34784e-05	1718
bin	7.43328e-05	1804
bin	7.51872e-05	1740
bin	7.60416e-05	1767
bin	7.6896e-05	1730
bin	7.77504e-05	1694
bin	7.86048e-05	1637
bin	7.94592e-05	1731
bin	8.03136e-05	1710
bin	8.1168e-05	1722
bin	8.20224e-05	1652
bin	8.28768e-05	1628
bin	8.37312e-05	1552
bin	8.45856e-05	1630
bin	8.544e-05	1633
bin	8.62944e-05	1667
bin	8.71488e-05	1513
bin	8.80032e-05	1523
bin	8.88576e-05	1455
bin	8.9712e-05	1515
bin	9.05664e-05	1494
bin	9.14208e-05	1494
bin	9.22752e-05	1461
bin	9.31296e-05	1468
bin	9.3984e-05	1454
bin	9.48384e-05	1439
bin	9.56928e-05	1360
bin	9.65472e-05	1396
bin	9.74016e-05	1276
bin	9.8256e-05	1299
bin	9.91104e-05	1347
bin	9.99648e-05	1307
bin	0.0001008192	1300
bin	0.0001016736	1281
bin	0.000102528	1225
bin	0.0001033824	1222
bin	0.0001042368	1154
bin	0.0001050912	1175
bin	0.0001059456	1130
bin	0.0001068	1075
bin	0.0001076544	1116
bin	0.0001085088	1060
bin	0.0001093632	1057
bin	0.0001102176	1063
bin	0.000111072	1085
bin	0.0001119264	1097
bin	0.0001127808	1068
bin	0.0001136352	1104
bin	0.0001144896	1075
bin	0.000115344	1086
bin	0.0001161984	1047
bin	0.0001170528	1087
bin	0.0001179072	1033
bin	0.0001187616	986
bin	0.000119616	1009
bin	0.0001204704	998
bin	0.0001213248	974
bin	0.0001221792	1029
bin	0.0001230336	954
bin	0.000123888	1037
bin	0.0001247424	1014
bin	0.0001255968	928
bin	0.0001264512	985
bin	0.0001273056	996
bin	0.00012816	955
bin	0.0001290144	910
bin	0.0001298688	929
bin	0.0001307232	953
bin	0.0001315776	1008
bin	0.000132432	1047
bin	0.0001332864	973
bin	0.0001341408	977
bin	0.0001349952	972
bin	0.0001358496	978
bin	0.000136704	978
bin	0.0001375584	951
bin	0.0001384128	946
bin	0.0001392672	1021
bin	0.0001401216	992
bin	0.000140976	962
bin	0.0001418304	1008
bin	0.0001426848	1020
bin	0.0001435392	992
bin	0.0001443936	962
bin	0.000145248	1000
bin	0.0001461024	967
bin	0.0001469568	1003
bin	0.0001478112	1027
bin	0.0001486656	919
bin	0.00014952	946
bin	0.0001503744	944
bin	0.0001512288	907
bin	0.0001520832	859
bin	0.0001529376	831
bin	0.000153792	878
bin	0.0001546464	845
bin	0.0001555008	794
bin	0.0001563552	791
bin	0.0001572096	870
bin	0.000158064	784
bin	0.0001589184	846
bin	0.0001597728	859
bin	0.0001606272	861
bin	0.0001614816	858
bin	0.000162336	880
bin	0.0001631904	869
bin	0.0001640448	799
bin	0.0001648992	808
bin	0.0001657536	780
bin	0.000166608	809
bin	0.0001674624	773
bin	0.0001683168	802
bin	0.0001691712	830
bin	0.0001700256	915
bin	0.00017088	861
bin	0.0001717344	861
bin	0.0001725888	912
bin	0.0001734432	860
bin	0.0001742976	889
bin	0.000175152	817
bin	0.0001760064	847
bin	0.0001768608	832
bin	0.0001777152	870
bin	0.0001785696	906
bin	0.000179424	834
bin	0.0001802784	828
bin	0.0001811328	805
bin	0.0001819872	827
bin	0.0001828416	760
bin	0.000183696	775
bin	0.0001845504	741
bin	0.0001854048	742
bin	0.0001862592	748
bin	0.0001871136	826
bin	0.000187968	835
bin	0.0001888224	697
bin	0.0001896768	760
bin	0.0001905312	728
bin	0.0001913856	745
bin	0.00019224	721
bin	0.0001930944	741
bin	0.0001939488	728
bin	0.0001948032	681
bin	0.0001956576	712
bin	0.000196512	721
bin	0.0001973664	745
bin	0.0001982208	671
bin	0.0001990752	696
bin	0.0001999296	681
bin	0.000200784	663
bin	0.0002016384	647
bin	0.0002024928	646
bin	0.0002033472	667
bin	0.0002042016	668
bin	0.000205056	712
bin	0.0002059104	694
bin	0.0002067648	663
bin	0.0002076192	655
bin	0.0002084736	666
bin	0.000209328	684
bin	0.0002101824	721
bin	0.0002110368	683
bin	0.0002118912	660
bin	0.0002127456	633
bin	0.0002136	650
bin	0.0002144544	616
bin	0.0002153088	658
bin	0.0002161632	658
bin	0.0002170176	591
bin	0.000217872	600
bin	0.0002187264	640
bin	0.0002195808	582
bin	0.0002204352	599
bin	0.0002212896	576
bin	0.000222144	598
bin	0.0002229984	632
bin	0.0002238528	639
bin	0.0002247072	613
bin	0.0002255616	658
bin	0.000226416	642
bin	0.0002272704	618
bin	0.0002281248	586
bin	0.0002289792	596
bin	0.0002298336	579
bin	0.000230688	594
bin	0.0002315424	562
bin	0.0002323968	545
bin	0.0002332512	565
bin	0.0002341056	564
bin	0.00023496	577
bin	0.0002358144	555
bin	0.0002366688	599
bin	0.0002375232	588
bin	0.0002383776	597
bin	0.000239232	597
bin	0.0002400864	582
bin	0.0002409408	600
bin	0.0002417952	583
bin	0.0002426496	604
bin	0.000243504	567
bin	0.0002443584	589
bin	0.0002452128	541
bin	0.0002460672	552
bin	0.0002469216	588
bin	0.000247776	593
bin	0.0002486304	575
bin	0.0002494848	609
bin	0.0002503392	575
bin	0.0002511936	600
bin	0.000252048	593
bin	0.0002529024	556
bin	0.0002537568	581
bin	0.0002546112	585
bin	0.0002554656	619
bin	0.00025632	614
bin	0.0002571744	618
bin	0.0002580288	626
bin	0.0002588832	624
bin	0.0002597376	587
bin	0.000260592	623
bin	0.0002614464	616
bin	0.0002623008	583
bin	0.0002631552	544
bin	0.0002640096	563
bin	0.000264864	588
bin	0.0002657184	539
bin	0.0002665728	551
bin	0.0002674272	594
bin	0.0002682816	537
bin	0.000269136	570
bin	0.0002699904	590
bin	0.0002708448	568
bin	0.0002716992	560
bin	0.0002725536	536
bin	0.000273408	570
bin	0.0002742624	570
bin	0.0002751168	585
bin	0.0002759712	545
bin	0.0002768256	537
bin	0.00027768	522
bin	0.0002785344	531
bin	0.0002793888	520
bin	0.0002802432	513
bin	0.0002810976	470
bin	0.000281952	496
bin	0.0002828064	518
bin	0.0002836608	495
bin	0.0002845152	464
bin	0.0002853696	472
bin	0.000286224	489
bin	0.0002870784	483
bin	0.0002879328	474
bin	0.0002887872	514
bin	0.0002896416	469
bin	0.000290496	469
bin	0.0002913504	499
bin	0.0002922048	547
bin	0.0002930592	561
bin	0.0002939136	567
bin	0.000294768	537
bin	0.0002956224	532
bin	0.0002964768	568
bin	0.0002973312	539
bin	0.0002981856	522
bin	0.00029904	504
bin	0.0002998944	538
bin	0.0003007488	540
bin	0.0003016032	478
bin	0.0003024576	482
bin	0.000303312	545
bin	0.0003041664	491
bin	0.0003050208	501
bin	0.0003058752	461
bin	0.0003067296	501
bin	0.000307584	480
bin	0.0003084384	487
bin	0.0003092928	466
bin	0.0003101472	452
bin	0.0003110016	475
bin	0.000311856	533
bin	0.0003127104	511
bin	0.0003135648	498
bin	0.0003144192	488
bin	0.0003152736	526
bin	0.000316128	493
bin	0.0003169824	495
bin	0.0003178368	477
bin	0.0003186912	496
bin	0.0003195456	489
bin	0.0003204	494
bin	0.0003212544	527
bin	0.0003221088	510
bin	0.0003229632	501
bin	0.0003238176	504
bin	0.000324672	520
bin	0.0003255264	512
bin	0.0003263808	478
bin	0.0003272352	496
bin	0.0003280896	504
bin	0.000328944	512
bin	0.0003297984	529
bin	0.0003306528	532
bin	0.0003315072	515
bin	0.0003323616	500
bin	0.000333216	505
bin	0.0003340704	501
bin	0.0003349248	524
bin	0.0003357792	487
bin	0.0003366336	472
bin	0.000337488	492
bin	0.0003383424	480
bin	0.0003391968	491
bin	0.0003400512	525
bin	0.0003409056	503
bin	0.00034176	547
bin	0.0003426144	552
bin	0.0003434688	555
bin	0.0003443232	495
bin	0.0003451776	457
bin	0.000346032	543
bin	0.0003468864	505
bin	0.0003477408	490
bin	0.0003485952	469
bin	0.0003494496	473
bin	0.000350304	477
bin	0.0003511584	437
bin	0.0003520128	445
bin	0.0003528672	466
bin	0.0003537216	443
bin	0.000354576	465
bin	0.0003554304	424
bin	0.0003562848	451
bin	0.0003571392	440
bin	0.0003579936	412
bin	0.000358848	457
bin	0.0003597024	467
bin	0.0003605568	437
bin	0.0003614112	436
bin	0.0003622656	453
bin	0.00036312	470
bin	0.0003639744	471
bin	0.0003648288	488
bin	0.0003656832	528
bin	0.0003665376	533
bin	0.000367392	539
bin	0.0003682464	514
bin	0.0003691008	539
bin	0.0003699552	497
bin	0.0003708096	536
bin	0.000371664	523
bin	0.0003725184	511
bin	0.0003733728	524
bin	0.0003742272	472
bin	0.0003750816	441
bin	0.000375936	449
bin	0.0003767904	468
bin	0.0003776448	444
bin	0.0003784992	458
bin	0.0003793536	423
bin	0.000380208	427
bin	0.0003810624	419
bin	0.0003819168	405
bin	0.0003827712	415
bin	0.0003836256	417
bin	0.00038448	408
bin	0.0003853344	396
bin	0.0003861888	457
bin	0.0003870432	426
bin	0.0003878976	409
bin	0.000388752	422
bin	0.0003896064	422
bin	0.0003904608	412
bin	0.0003913152	408
bin	0.0003921696	425
bin	0.000393024	442
bin	0.0003938784	382
bin	0.0003947328	454
bin	0.0003955872	446
bin	0.0003964416	461
bin	0.000397296	462
bin	0.0003981504	473
bin	0.0003990048	503
bin	0.0003998592	449
bin	0.0004007136	481
bin	0.000401568	454
bin	0.0004024224	445
bin	0.0004032768	421
bin	0.0004041312	424
bin	0.0004049856	434
bin	0.00040584	422
bin	0.0004066944	376
bin	0.0004075488	385
bin	0.0004084032	377
bin	0.0004092576	357
bin	0.000410112	384
bin	0.0004109664	365
bin	0.0004118208	389
bin	0.0004126752	397
bin	0.0004135296	391
bin	0.000414384	385
bin	0.0004152384	382
bin	0.0004160928	413
bin	0.0004169472	413
bin	0.0004178016	388
bin	0.000418656	412
bin	0.0004195104	433
bin	0.0004203648	413
bin	0.0004212192	432
bin	0.0004220736	434
bin	0.000422928	419
bin	0.0004237824	409
bin	0.0004246368	447
bin	0.0004254912	438
bin	0.0004263456	441
bin	0.0004272	5694389
