version 2
run Bitcomplement-37-20120709-21:21:45-24926
attr alg 1
attr buf 8
attr configname Bitcomplement
attr datetime 20120709-21:21:45
attr delta 0.2
attr experiment Bitcomplement
attr ext false
attr inifile altro.ini
attr iterationvars "$buf=8, $ext=false, $ofedge=2, $delta=0.2, $alg=1"
attr iterationvars2 "$buf=8, $ext=false, $ofedge=2, $delta=0.2, $alg=1, $repetition=0"
attr measurement "$buf=8, $ext=false, $ofedge=2, $delta=0.2, $alg=1"
attr network Torus3d_bub
attr ofedge 2
attr processid 24926
attr repetition 0
attr replication #0
attr resultdir altro-results
attr runnumber 37
attr seedset 37

scalar . 	alg 	1
scalar . 	buf 	8
scalar . 	delta 	0.2
scalar . 	ofedge 	2
scalar Torus3d_bub.timer 	#endTime 	0.011973454981299
scalar Torus3d_bub.timer 	#totalHops 	109912149
scalar Torus3d_bub.timer 	#totalPacks 	6291456
scalar Torus3d_bub.timer 	#totalDerouted 	3609080
scalar Torus3d_bub.timer 	#totalOutFlanked 	3609080
scalar Torus3d_bub.timer 	#totalCQRed 	0
scalar Torus3d_bub.timer 	#LB 	0.000786432
scalar Torus3d_bub.timer 	#ratio 	0.06568129259502
statistic Torus3d_bub.timer 	"Hop Times"
field count 6291456
field mean 0.00018944572744011
field stddev 0.00022759856383421
field sum 1191.8894585775
field sqrsum 0.55170269448962
field min 4.16777777e-07
field max 0.003288820666666
bin	-INF	0
bin	0	0
bin	7.12e-08	0
bin	1.424e-07	0
bin	2.136e-07	0
bin	2.848e-07	0
bin	3.56e-07	16
bin	4.272e-07	501
bin	4.984e-07	4731
bin	5.696e-07	7706
bin	6.408e-07	8724
bin	7.12e-07	10205
bin	7.832e-07	11352
bin	8.544e-07	13490
bin	9.256e-07	15379
bin	9.968e-07	16613
bin	1.068e-06	18076
bin	1.1392e-06	18999
bin	1.2104e-06	20045
bin	1.2816e-06	20177
bin	1.3528e-06	20448
bin	1.424e-06	20529
bin	1.4952e-06	20558
bin	1.5664e-06	20321
bin	1.6376e-06	20109
bin	1.7088e-06	19571
bin	1.78e-06	19940
bin	1.8512e-06	19607
bin	1.9224e-06	19445
bin	1.9936e-06	19621
bin	2.0648e-06	19883
bin	2.136e-06	20072
bin	2.2072e-06	20084
bin	2.2784e-06	20036
bin	2.3496e-06	20151
bin	2.4208e-06	20573
bin	2.492e-06	20632
bin	2.5632e-06	20469
bin	2.6344e-06	20511
bin	2.7056e-06	20303
bin	2.7768e-06	20597
bin	2.848e-06	20466
bin	2.9192e-06	20571
bin	2.9904e-06	20627
bin	3.0616e-06	20636
bin	3.1328e-06	20468
bin	3.204e-06	20513
bin	3.2752e-06	20731
bin	3.3464e-06	20533
bin	3.4176e-06	20424
bin	3.4888e-06	20161
bin	3.56e-06	20284
bin	3.6312e-06	20351
bin	3.7024e-06	20116
bin	3.7736e-06	20199
bin	3.8448e-06	20437
bin	3.916e-06	20298
bin	3.9872e-06	20097
bin	4.0584e-06	19780
bin	4.1296e-06	19640
bin	4.2008e-06	19829
bin	4.272e-06	19495
bin	4.3432e-06	19511
bin	4.4144e-06	18964
bin	4.4856e-06	18845
bin	4.5568e-06	18629
bin	4.628e-06	18765
bin	4.6992e-06	18386
bin	4.7704e-06	18429
bin	4.8416e-06	17793
bin	4.9128e-06	17594
bin	4.984e-06	17328
bin	5.0552e-06	17264
bin	5.1264e-06	16672
bin	5.1976e-06	16331
bin	5.2688e-06	16268
bin	5.34e-06	15825
bin	5.4112e-06	15581
bin	5.4824e-06	15369
bin	5.5536e-06	15036
bin	5.6248e-06	14886
bin	5.696e-06	14466
bin	5.7672e-06	14553
bin	5.8384e-06	14237
bin	5.9096e-06	13669
bin	5.9808e-06	13549
bin	6.052e-06	13222
bin	6.1232e-06	12806
bin	6.1944e-06	12493
bin	6.2656e-06	12347
bin	6.3368e-06	12101
bin	6.408e-06	11765
bin	6.4792e-06	11673
bin	6.5504e-06	11139
bin	6.6216e-06	10769
bin	6.6928e-06	10538
bin	6.764e-06	10195
bin	6.8352e-06	10130
bin	6.9064e-06	10077
bin	6.9776e-06	9830
bin	7.0488e-06	9254
bin	7.12e-06	9344
bin	7.1912e-06	9296
bin	7.2624e-06	9102
bin	7.3336e-06	8860
bin	7.4048e-06	8524
bin	7.476e-06	8364
bin	7.5472e-06	8250
bin	7.6184e-06	7886
bin	7.6896e-06	7690
bin	7.7608e-06	7603
bin	7.832e-06	7598
bin	7.9032e-06	7318
bin	7.9744e-06	7095
bin	8.0456e-06	6978
bin	8.1168e-06	7049
bin	8.188e-06	6812
bin	8.2592e-06	6675
bin	8.3304e-06	6249
bin	8.4016e-06	6228
bin	8.4728e-06	5861
bin	8.544e-06	5769
bin	8.6152e-06	5696
bin	8.6864e-06	5622
bin	8.7576e-06	5459
bin	8.8288e-06	5428
bin	8.9e-06	5476
bin	8.9712e-06	5246
bin	9.0424e-06	5304
bin	9.1136e-06	5062
bin	9.1848e-06	5017
bin	9.256e-06	4846
bin	9.3272e-06	4934
bin	9.3984e-06	4850
bin	9.4696e-06	4810
bin	9.5408e-06	4747
bin	9.612e-06	4598
bin	9.6832e-06	4490
bin	9.7544e-06	4305
bin	9.8256e-06	4257
bin	9.8968e-06	4081
bin	9.968e-06	4115
bin	1.00392e-05	4119
bin	1.01104e-05	3929
bin	1.01816e-05	3916
bin	1.02528e-05	3841
bin	1.0324e-05	3803
bin	1.03952e-05	3858
bin	1.04664e-05	3754
bin	1.05376e-05	3758
bin	1.06088e-05	3758
bin	1.068e-05	3663
bin	1.07512e-05	3561
bin	1.08224e-05	3465
bin	1.08936e-05	3482
bin	1.09648e-05	3360
bin	1.1036e-05	3408
bin	1.11072e-05	3427
bin	1.11784e-05	3322
bin	1.12496e-05	3384
bin	1.13208e-05	3108
bin	1.1392e-05	3242
bin	1.14632e-05	3096
bin	1.15344e-05	3190
bin	1.16056e-05	3120
bin	1.16768e-05	3125
bin	1.1748e-05	3078
bin	1.18192e-05	2977
bin	1.18904e-05	2821
bin	1.19616e-05	2784
bin	1.20328e-05	2745
bin	1.2104e-05	2800
bin	1.21752e-05	2702
bin	1.22464e-05	2645
bin	1.23176e-05	2754
bin	1.23888e-05	2627
bin	1.246e-05	2572
bin	1.25312e-05	2532
bin	1.26024e-05	2542
bin	1.26736e-05	2549
bin	1.27448e-05	2531
bin	1.2816e-05	2557
bin	1.28872e-05	2559
bin	1.29584e-05	2525
bin	1.30296e-05	2584
bin	1.31008e-05	2539
bin	1.3172e-05	2574
bin	1.32432e-05	2516
bin	1.33144e-05	2527
bin	1.33856e-05	2473
bin	1.34568e-05	2443
bin	1.3528e-05	2432
bin	1.35992e-05	2414
bin	1.36704e-05	2448
bin	1.37416e-05	2451
bin	1.38128e-05	2454
bin	1.3884e-05	2463
bin	1.39552e-05	2366
bin	1.40264e-05	2392
bin	1.40976e-05	2393
bin	1.41688e-05	2353
bin	1.424e-05	2313
bin	1.43112e-05	2175
bin	1.43824e-05	2225
bin	1.44536e-05	2187
bin	1.45248e-05	2106
bin	1.4596e-05	2124
bin	1.46672e-05	2103
bin	1.47384e-05	1990
bin	1.48096e-05	2018
bin	1.48808e-05	2041
bin	1.4952e-05	1981
bin	1.50232e-05	2053
bin	1.50944e-05	1967
bin	1.51656e-05	1885
bin	1.52368e-05	1865
bin	1.5308e-05	1897
bin	1.53792e-05	1836
bin	1.54504e-05	1848
bin	1.55216e-05	1875
bin	1.55928e-05	1841
bin	1.5664e-05	1880
bin	1.57352e-05	1885
bin	1.58064e-05	1903
bin	1.58776e-05	1979
bin	1.59488e-05	1792
bin	1.602e-05	1863
bin	1.60912e-05	1758
bin	1.61624e-05	1733
bin	1.62336e-05	1779
bin	1.63048e-05	1825
bin	1.6376e-05	1699
bin	1.64472e-05	1787
bin	1.65184e-05	1794
bin	1.65896e-05	1658
bin	1.66608e-05	1622
bin	1.6732e-05	1592
bin	1.68032e-05	1786
bin	1.68744e-05	1709
bin	1.69456e-05	1726
bin	1.70168e-05	1693
bin	1.7088e-05	1583
bin	1.71592e-05	1642
bin	1.72304e-05	1601
bin	1.73016e-05	1576
bin	1.73728e-05	1669
bin	1.7444e-05	1618
bin	1.75152e-05	1580
bin	1.75864e-05	1577
bin	1.76576e-05	1634
bin	1.77288e-05	1529
bin	1.78e-05	1522
bin	1.78712e-05	1605
bin	1.79424e-05	1506
bin	1.80136e-05	1526
bin	1.80848e-05	1554
bin	1.8156e-05	1546
bin	1.82272e-05	1517
bin	1.82984e-05	1519
bin	1.83696e-05	1475
bin	1.84408e-05	1552
bin	1.8512e-05	1543
bin	1.85832e-05	1588
bin	1.86544e-05	1498
bin	1.87256e-05	1477
bin	1.87968e-05	1489
bin	1.8868e-05	1540
bin	1.89392e-05	1497
bin	1.90104e-05	1461
bin	1.90816e-05	1536
bin	1.91528e-05	1506
bin	1.9224e-05	1518
bin	1.92952e-05	1539
bin	1.93664e-05	1443
bin	1.94376e-05	1446
bin	1.95088e-05	1408
bin	1.958e-05	1437
bin	1.96512e-05	1492
bin	1.97224e-05	1456
bin	1.97936e-05	1512
bin	1.98648e-05	1449
bin	1.9936e-05	1515
bin	2.00072e-05	1430
bin	2.00784e-05	1412
bin	2.01496e-05	1419
bin	2.02208e-05	1468
bin	2.0292e-05	1460
bin	2.03632e-05	1437
bin	2.04344e-05	1396
bin	2.05056e-05	1416
bin	2.05768e-05	1399
bin	2.0648e-05	1350
bin	2.07192e-05	1318
bin	2.07904e-05	1375
bin	2.08616e-05	1370
bin	2.09328e-05	1297
bin	2.1004e-05	1282
bin	2.10752e-05	1253
bin	2.11464e-05	1249
bin	2.12176e-05	1278
bin	2.12888e-05	1230
bin	2.136e-05	1260
bin	2.14312e-05	1311
bin	2.15024e-05	1323
bin	2.15736e-05	1321
bin	2.16448e-05	1348
bin	2.1716e-05	1319
bin	2.17872e-05	1372
bin	2.18584e-05	1272
bin	2.19296e-05	1271
bin	2.20008e-05	1303
bin	2.2072e-05	1336
bin	2.21432e-05	1359
bin	2.22144e-05	1258
bin	2.22856e-05	1310
bin	2.23568e-05	1333
bin	2.2428e-05	1350
bin	2.24992e-05	1323
bin	2.25704e-05	1328
bin	2.26416e-05	1343
bin	2.27128e-05	1236
bin	2.2784e-05	1267
bin	2.28552e-05	1239
bin	2.29264e-05	1122
bin	2.29976e-05	1150
bin	2.30688e-05	1183
bin	2.314e-05	1116
bin	2.32112e-05	1155
bin	2.32824e-05	1249
bin	2.33536e-05	1130
bin	2.34248e-05	1214
bin	2.3496e-05	1171
bin	2.35672e-05	1211
bin	2.36384e-05	1176
bin	2.37096e-05	1086
bin	2.37808e-05	1086
bin	2.3852e-05	1093
bin	2.39232e-05	1082
bin	2.39944e-05	1091
bin	2.40656e-05	1051
bin	2.41368e-05	1009
bin	2.4208e-05	1080
bin	2.42792e-05	1071
bin	2.43504e-05	1045
bin	2.44216e-05	1044
bin	2.44928e-05	1050
bin	2.4564e-05	1052
bin	2.46352e-05	1110
bin	2.47064e-05	1051
bin	2.47776e-05	1117
bin	2.48488e-05	1028
bin	2.492e-05	1020
bin	2.49912e-05	1041
bin	2.50624e-05	968
bin	2.51336e-05	1012
bin	2.52048e-05	956
bin	2.5276e-05	1018
bin	2.53472e-05	987
bin	2.54184e-05	1057
bin	2.54896e-05	1016
bin	2.55608e-05	1006
bin	2.5632e-05	1012
bin	2.57032e-05	1065
bin	2.57744e-05	1030
bin	2.58456e-05	1031
bin	2.59168e-05	1021
bin	2.5988e-05	1031
bin	2.60592e-05	1000
bin	2.61304e-05	1019
bin	2.62016e-05	1043
bin	2.62728e-05	995
bin	2.6344e-05	938
bin	2.64152e-05	935
bin	2.64864e-05	974
bin	2.65576e-05	977
bin	2.66288e-05	1004
bin	2.67e-05	988
bin	2.67712e-05	932
bin	2.68424e-05	948
bin	2.69136e-05	948
bin	2.69848e-05	969
bin	2.7056e-05	1016
bin	2.71272e-05	1028
bin	2.71984e-05	1106
bin	2.72696e-05	1026
bin	2.73408e-05	1030
bin	2.7412e-05	1046
bin	2.74832e-05	1067
bin	2.75544e-05	999
bin	2.76256e-05	955
bin	2.76968e-05	884
bin	2.7768e-05	948
bin	2.78392e-05	902
bin	2.79104e-05	913
bin	2.79816e-05	909
bin	2.80528e-05	896
bin	2.8124e-05	913
bin	2.81952e-05	962
bin	2.82664e-05	1008
bin	2.83376e-05	1004
bin	2.84088e-05	962
bin	2.848e-05	981
bin	2.85512e-05	934
bin	2.86224e-05	933
bin	2.86936e-05	937
bin	2.87648e-05	943
bin	2.8836e-05	951
bin	2.89072e-05	910
bin	2.89784e-05	933
bin	2.90496e-05	959
bin	2.91208e-05	960
bin	2.9192e-05	917
bin	2.92632e-05	896
bin	2.93344e-05	886
bin	2.94056e-05	911
bin	2.94768e-05	837
bin	2.9548e-05	857
bin	2.96192e-05	834
bin	2.96904e-05	830
bin	2.97616e-05	811
bin	2.98328e-05	853
bin	2.9904e-05	837
bin	2.99752e-05	909
bin	3.00464e-05	872
bin	3.01176e-05	834
bin	3.01888e-05	882
bin	3.026e-05	861
bin	3.03312e-05	815
bin	3.04024e-05	889
bin	3.04736e-05	858
bin	3.05448e-05	841
bin	3.0616e-05	835
bin	3.06872e-05	811
bin	3.07584e-05	831
bin	3.08296e-05	841
bin	3.09008e-05	781
bin	3.0972e-05	785
bin	3.10432e-05	770
bin	3.11144e-05	778
bin	3.11856e-05	788
bin	3.12568e-05	819
bin	3.1328e-05	863
bin	3.13992e-05	812
bin	3.14704e-05	832
bin	3.15416e-05	826
bin	3.16128e-05	814
bin	3.1684e-05	805
bin	3.17552e-05	809
bin	3.18264e-05	836
bin	3.18976e-05	834
bin	3.19688e-05	846
bin	3.204e-05	823
bin	3.21112e-05	834
bin	3.21824e-05	838
bin	3.22536e-05	811
bin	3.23248e-05	814
bin	3.2396e-05	838
bin	3.24672e-05	814
bin	3.25384e-05	827
bin	3.26096e-05	791
bin	3.26808e-05	791
bin	3.2752e-05	774
bin	3.28232e-05	863
bin	3.28944e-05	887
bin	3.29656e-05	875
bin	3.30368e-05	859
bin	3.3108e-05	841
bin	3.31792e-05	876
bin	3.32504e-05	806
bin	3.33216e-05	820
bin	3.33928e-05	815
bin	3.3464e-05	802
bin	3.35352e-05	717
bin	3.36064e-05	796
bin	3.36776e-05	832
bin	3.37488e-05	786
bin	3.382e-05	828
bin	3.38912e-05	815
bin	3.39624e-05	801
bin	3.40336e-05	814
bin	3.41048e-05	767
bin	3.4176e-05	734
bin	3.42472e-05	704
bin	3.43184e-05	697
bin	3.43896e-05	634
bin	3.44608e-05	688
bin	3.4532e-05	707
bin	3.46032e-05	682
bin	3.46744e-05	745
bin	3.47456e-05	800
bin	3.48168e-05	752
bin	3.4888e-05	756
bin	3.49592e-05	722
bin	3.50304e-05	729
bin	3.51016e-05	777
bin	3.51728e-05	799
bin	3.5244e-05	794
bin	3.53152e-05	795
bin	3.53864e-05	772
bin	3.54576e-05	774
bin	3.55288e-05	722
bin	3.56e-05	3922374
statistic Torus3d_bub.timer 	"Life Times"
field count 6291456
field mean 0.0028875632759733
field stddev 0.0027465773175151
field sum 18166.977298002
field sqrsum 99.919063530927
field min 1.250333333e-06
field max 0.011576174648584
bin	-INF	0
bin	0	0
bin	8.544e-07	124
bin	1.7088e-06	548
bin	2.5632e-06	1450
bin	3.4176e-06	2706
bin	4.272e-06	4249
bin	5.1264e-06	4993
bin	5.9808e-06	5746
bin	6.8352e-06	6024
bin	7.6896e-06	6679
bin	8.544e-06	7371
bin	9.3984e-06	8086
bin	1.02528e-05	9065
bin	1.11072e-05	9949
bin	1.19616e-05	10321
bin	1.2816e-05	10637
bin	1.36704e-05	10808
bin	1.45248e-05	10768
bin	1.53792e-05	10702
bin	1.62336e-05	10295
bin	1.7088e-05	10032
bin	1.79424e-05	9981
bin	1.87968e-05	9829
bin	1.96512e-05	9998
bin	2.05056e-05	10012
bin	2.136e-05	10111
bin	2.22144e-05	10136
bin	2.30688e-05	10195
bin	2.39232e-05	10381
bin	2.47776e-05	10627
bin	2.5632e-05	10918
bin	2.64864e-05	11159
bin	2.73408e-05	11503
bin	2.81952e-05	11510
bin	2.90496e-05	11575
bin	2.9904e-05	11717
bin	3.07584e-05	11946
bin	3.16128e-05	12161
bin	3.24672e-05	12210
bin	3.33216e-05	12287
bin	3.4176e-05	12789
bin	3.50304e-05	12675
bin	3.58848e-05	12858
bin	3.67392e-05	13036
bin	3.75936e-05	13183
bin	3.8448e-05	13293
bin	3.93024e-05	13480
bin	4.01568e-05	13521
bin	4.10112e-05	13574
bin	4.18656e-05	13668
bin	4.272e-05	13986
bin	4.35744e-05	14139
bin	4.44288e-05	13918
bin	4.52832e-05	14185
bin	4.61376e-05	14074
bin	4.6992e-05	14019
bin	4.78464e-05	14146
bin	4.87008e-05	14148
bin	4.95552e-05	14205
bin	5.04096e-05	14309
bin	5.1264e-05	14158
bin	5.21184e-05	14322
bin	5.29728e-05	14398
bin	5.38272e-05	14091
bin	5.46816e-05	14333
bin	5.5536e-05	14671
bin	5.63904e-05	14517
bin	5.72448e-05	14267
bin	5.80992e-05	14361
bin	5.89536e-05	14611
bin	5.9808e-05	14743
bin	6.06624e-05	14917
bin	6.15168e-05	14890
bin	6.23712e-05	15267
bin	6.32256e-05	14826
bin	6.408e-05	15090
bin	6.49344e-05	15316
bin	6.57888e-05	15291
bin	6.66432e-05	15181
bin	6.74976e-05	14866
bin	6.8352e-05	15270
bin	6.92064e-05	15524
bin	7.00608e-05	15404
bin	7.09152e-05	15285
bin	7.17696e-05	15387
bin	7.2624e-05	15484
bin	7.34784e-05	15528
bin	7.43328e-05	15451
bin	7.51872e-05	15487
bin	7.60416e-05	15598
bin	7.6896e-05	15086
bin	7.77504e-05	15304
bin	7.86048e-05	15384
bin	7.94592e-05	15095
bin	8.03136e-05	15331
bin	8.1168e-05	15251
bin	8.20224e-05	15231
bin	8.28768e-05	15087
bin	8.37312e-05	15000
bin	8.45856e-05	14887
bin	8.544e-05	14862
bin	8.62944e-05	14902
bin	8.71488e-05	14712
bin	8.80032e-05	14560
bin	8.88576e-05	14696
bin	8.9712e-05	14447
bin	9.05664e-05	14367
bin	9.14208e-05	14407
bin	9.22752e-05	14353
bin	9.31296e-05	13940
bin	9.3984e-05	13871
bin	9.48384e-05	13684
bin	9.56928e-05	13464
bin	9.65472e-05	13313
bin	9.74016e-05	13148
bin	9.8256e-05	13200
bin	9.91104e-05	12943
bin	9.99648e-05	13081
bin	0.0001008192	12512
bin	0.0001016736	12199
bin	0.000102528	11962
bin	0.0001033824	12033
bin	0.0001042368	11585
bin	0.0001050912	11336
bin	0.0001059456	11069
bin	0.0001068	10872
bin	0.0001076544	10592
bin	0.0001085088	10626
bin	0.0001093632	10515
bin	0.0001102176	10565
bin	0.000111072	10157
bin	0.0001119264	10212
bin	0.0001127808	10016
bin	0.0001136352	9925
bin	0.0001144896	9444
bin	0.000115344	9465
bin	0.0001161984	9321
bin	0.0001170528	9064
bin	0.0001179072	9039
bin	0.0001187616	8785
bin	0.000119616	8664
bin	0.0001204704	8530
bin	0.0001213248	8313
bin	0.0001221792	8143
bin	0.0001230336	7878
bin	0.000123888	7565
bin	0.0001247424	6874
bin	0.0001255968	6275
bin	0.0001264512	5896
bin	0.0001273056	5435
bin	0.00012816	5034
bin	0.0001290144	4567
bin	0.0001298688	4259
bin	0.0001307232	4019
bin	0.0001315776	3832
bin	0.000132432	3545
bin	0.0001332864	3386
bin	0.0001341408	3219
bin	0.0001349952	2968
bin	0.0001358496	2919
bin	0.000136704	2713
bin	0.0001375584	2531
bin	0.0001384128	2429
bin	0.0001392672	2469
bin	0.0001401216	2271
bin	0.000140976	2268
bin	0.0001418304	2119
bin	0.0001426848	2150
bin	0.0001435392	2067
bin	0.0001443936	1961
bin	0.000145248	1987
bin	0.0001461024	1883
bin	0.0001469568	1801
bin	0.0001478112	1696
bin	0.0001486656	1782
bin	0.00014952	1799
bin	0.0001503744	1823
bin	0.0001512288	1851
bin	0.0001520832	1711
bin	0.0001529376	1796
bin	0.000153792	1719
bin	0.0001546464	1686
bin	0.0001555008	1746
bin	0.0001563552	1740
bin	0.0001572096	1767
bin	0.000158064	1647
bin	0.0001589184	1604
bin	0.0001597728	1667
bin	0.0001606272	1632
bin	0.0001614816	1633
bin	0.000162336	1622
bin	0.0001631904	1608
bin	0.0001640448	1585
bin	0.0001648992	1610
bin	0.0001657536	1508
bin	0.000166608	1527
bin	0.0001674624	1490
bin	0.0001683168	1533
bin	0.0001691712	1520
bin	0.0001700256	1519
bin	0.00017088	1487
bin	0.0001717344	1513
bin	0.0001725888	1610
bin	0.0001734432	1549
bin	0.0001742976	1526
bin	0.000175152	1521
bin	0.0001760064	1524
bin	0.0001768608	1473
bin	0.0001777152	1588
bin	0.0001785696	1588
bin	0.000179424	1583
bin	0.0001802784	1530
bin	0.0001811328	1575
bin	0.0001819872	1538
bin	0.0001828416	1528
bin	0.000183696	1419
bin	0.0001845504	1502
bin	0.0001854048	1473
bin	0.0001862592	1498
bin	0.0001871136	1524
bin	0.000187968	1487
bin	0.0001888224	1494
bin	0.0001896768	1469
bin	0.0001905312	1452
bin	0.0001913856	1490
bin	0.00019224	1509
bin	0.0001930944	1404
bin	0.0001939488	1391
bin	0.0001948032	1463
bin	0.0001956576	1476
bin	0.000196512	1540
bin	0.0001973664	1470
bin	0.0001982208	1574
bin	0.0001990752	1589
bin	0.0001999296	1514
bin	0.000200784	1473
bin	0.0002016384	1569
bin	0.0002024928	1593
bin	0.0002033472	1574
bin	0.0002042016	1582
bin	0.000205056	1575
bin	0.0002059104	1608
bin	0.0002067648	1546
bin	0.0002076192	1589
bin	0.0002084736	1551
bin	0.000209328	1578
bin	0.0002101824	1524
bin	0.0002110368	1593
bin	0.0002118912	1534
bin	0.0002127456	1550
bin	0.0002136	1548
bin	0.0002144544	1528
bin	0.0002153088	1544
bin	0.0002161632	1577
bin	0.0002170176	1559
bin	0.000217872	1633
bin	0.0002187264	1573
bin	0.0002195808	1612
bin	0.0002204352	1637
bin	0.0002212896	1619
bin	0.000222144	1720
bin	0.0002229984	1700
bin	0.0002238528	1713
bin	0.0002247072	1721
bin	0.0002255616	1746
bin	0.000226416	1754
bin	0.0002272704	1760
bin	0.0002281248	1748
bin	0.0002289792	1758
bin	0.0002298336	1791
bin	0.000230688	1787
bin	0.0002315424	1804
bin	0.0002323968	1811
bin	0.0002332512	1717
bin	0.0002341056	1800
bin	0.00023496	1734
bin	0.0002358144	1743
bin	0.0002366688	1777
bin	0.0002375232	1758
bin	0.0002383776	1789
bin	0.000239232	1900
bin	0.0002400864	1837
bin	0.0002409408	1846
bin	0.0002417952	1882
bin	0.0002426496	1872
bin	0.000243504	1794
bin	0.0002443584	1871
bin	0.0002452128	1896
bin	0.0002460672	1891
bin	0.0002469216	1830
bin	0.000247776	1836
bin	0.0002486304	1834
bin	0.0002494848	1666
bin	0.0002503392	1649
bin	0.0002511936	1553
bin	0.000252048	1652
bin	0.0002529024	1546
bin	0.0002537568	1469
bin	0.0002546112	1429
bin	0.0002554656	1422
bin	0.00025632	1367
bin	0.0002571744	1304
bin	0.0002580288	1289
bin	0.0002588832	1287
bin	0.0002597376	1216
bin	0.000260592	1164
bin	0.0002614464	1136
bin	0.0002623008	1109
bin	0.0002631552	1135
bin	0.0002640096	1097
bin	0.000264864	1063
bin	0.0002657184	1013
bin	0.0002665728	1032
bin	0.0002674272	980
bin	0.0002682816	951
bin	0.000269136	979
bin	0.0002699904	1037
bin	0.0002708448	982
bin	0.0002716992	959
bin	0.0002725536	959
bin	0.000273408	984
bin	0.0002742624	941
bin	0.0002751168	948
bin	0.0002759712	917
bin	0.0002768256	847
bin	0.00027768	880
bin	0.0002785344	884
bin	0.0002793888	888
bin	0.0002802432	876
bin	0.0002810976	886
bin	0.000281952	936
bin	0.0002828064	871
bin	0.0002836608	839
bin	0.0002845152	876
bin	0.0002853696	897
bin	0.000286224	885
bin	0.0002870784	849
bin	0.0002879328	846
bin	0.0002887872	899
bin	0.0002896416	907
bin	0.000290496	919
bin	0.0002913504	910
bin	0.0002922048	836
bin	0.0002930592	886
bin	0.0002939136	809
bin	0.000294768	895
bin	0.0002956224	889
bin	0.0002964768	903
bin	0.0002973312	874
bin	0.0002981856	898
bin	0.00029904	897
bin	0.0002998944	928
bin	0.0003007488	887
bin	0.0003016032	910
bin	0.0003024576	921
bin	0.000303312	857
bin	0.0003041664	822
bin	0.0003050208	838
bin	0.0003058752	849
bin	0.0003067296	862
bin	0.000307584	883
bin	0.0003084384	818
bin	0.0003092928	885
bin	0.0003101472	890
bin	0.0003110016	886
bin	0.000311856	898
bin	0.0003127104	951
bin	0.0003135648	906
bin	0.0003144192	866
bin	0.0003152736	889
bin	0.000316128	901
bin	0.0003169824	912
bin	0.0003178368	910
bin	0.0003186912	914
bin	0.0003195456	994
bin	0.0003204	982
bin	0.0003212544	982
bin	0.0003221088	914
bin	0.0003229632	946
bin	0.0003238176	946
bin	0.000324672	897
bin	0.0003255264	930
bin	0.0003263808	945
bin	0.0003272352	952
bin	0.0003280896	907
bin	0.000328944	952
bin	0.0003297984	894
bin	0.0003306528	946
bin	0.0003315072	911
bin	0.0003323616	984
bin	0.000333216	1007
bin	0.0003340704	984
bin	0.0003349248	1005
bin	0.0003357792	960
bin	0.0003366336	988
bin	0.000337488	981
bin	0.0003383424	995
bin	0.0003391968	1024
bin	0.0003400512	1034
bin	0.0003409056	1025
bin	0.00034176	1003
bin	0.0003426144	1037
bin	0.0003434688	1008
bin	0.0003443232	1039
bin	0.0003451776	1065
bin	0.000346032	1054
bin	0.0003468864	1081
bin	0.0003477408	1041
bin	0.0003485952	1041
bin	0.0003494496	1044
bin	0.000350304	1012
bin	0.0003511584	1058
bin	0.0003520128	1026
bin	0.0003528672	1063
bin	0.0003537216	1067
bin	0.000354576	1070
bin	0.0003554304	1042
bin	0.0003562848	1031
bin	0.0003571392	1039
bin	0.0003579936	1036
bin	0.000358848	1029
bin	0.0003597024	1023
bin	0.0003605568	1010
bin	0.0003614112	1083
bin	0.0003622656	1099
bin	0.00036312	1142
bin	0.0003639744	1107
bin	0.0003648288	1100
bin	0.0003656832	1151
bin	0.0003665376	1113
bin	0.000367392	1105
bin	0.0003682464	1102
bin	0.0003691008	1108
bin	0.0003699552	1124
bin	0.0003708096	1106
bin	0.000371664	1083
bin	0.0003725184	1079
bin	0.0003733728	1030
bin	0.0003742272	1037
bin	0.0003750816	1014
bin	0.000375936	1088
bin	0.0003767904	1000
bin	0.0003776448	864
bin	0.0003784992	947
bin	0.0003793536	840
bin	0.000380208	895
bin	0.0003810624	868
bin	0.0003819168	849
bin	0.0003827712	791
bin	0.0003836256	773
bin	0.00038448	741
bin	0.0003853344	750
bin	0.0003861888	742
bin	0.0003870432	789
bin	0.0003878976	733
bin	0.000388752	728
bin	0.0003896064	748
bin	0.0003904608	736
bin	0.0003913152	754
bin	0.0003921696	708
bin	0.000393024	653
bin	0.0003938784	692
bin	0.0003947328	688
bin	0.0003955872	690
bin	0.0003964416	695
bin	0.000397296	684
bin	0.0003981504	655
bin	0.0003990048	681
bin	0.0003998592	654
bin	0.0004007136	684
bin	0.000401568	663
bin	0.0004024224	667
bin	0.0004032768	615
bin	0.0004041312	658
bin	0.0004049856	618
bin	0.00040584	651
bin	0.0004066944	638
bin	0.0004075488	650
bin	0.0004084032	644
bin	0.0004092576	644
bin	0.000410112	643
bin	0.0004109664	681
bin	0.0004118208	687
bin	0.0004126752	658
bin	0.0004135296	637
bin	0.000414384	643
bin	0.0004152384	667
bin	0.0004160928	678
bin	0.0004169472	691
bin	0.0004178016	638
bin	0.000418656	664
bin	0.0004195104	679
bin	0.0004203648	669
bin	0.0004212192	657
bin	0.0004220736	645
bin	0.000422928	666
bin	0.0004237824	671
bin	0.0004246368	643
bin	0.0004254912	604
bin	0.0004263456	639
bin	0.0004272	4058941
