version 2
run Bitcomplement-17-20120709-19:46:04-24887
attr alg 1
attr buf 8
attr configname Bitcomplement
attr datetime 20120709-19:46:04
attr delta 0.4
attr experiment Bitcomplement
attr ext true
attr inifile altro.ini
attr iterationvars "$buf=8, $ext=true, $ofedge=2, $delta=0.4, $alg=1"
attr iterationvars2 "$buf=8, $ext=true, $ofedge=2, $delta=0.4, $alg=1, $repetition=0"
attr measurement "$buf=8, $ext=true, $ofedge=2, $delta=0.4, $alg=1"
attr network Torus3d_bub
attr ofedge 2
attr processid 24887
attr repetition 0
attr replication #0
attr resultdir altro-results
attr runnumber 17
attr seedset 17

scalar . 	alg 	1
scalar . 	buf 	8
scalar . 	delta 	0.4
scalar . 	ofedge 	2
scalar Torus3d_bub.timer 	#endTime 	0.015801550975824
scalar Torus3d_bub.timer 	#totalHops 	110791974
scalar Torus3d_bub.timer 	#totalPacks 	6291456
scalar Torus3d_bub.timer 	#totalDerouted 	3605740
scalar Torus3d_bub.timer 	#totalOutFlanked 	3605740
scalar Torus3d_bub.timer 	#totalCQRed 	0
scalar Torus3d_bub.timer 	#LB 	0.000786432
scalar Torus3d_bub.timer 	#ratio 	0.049769291710872
statistic Torus3d_bub.timer 	"Hop Times"
field count 6291456
field mean 0.00044413400432603
field stddev 0.00035614370444311
field sum 2794.2495463211
field sqrsum 2.0390189372448
field min 4.57666655e-07
field max 0.004219869111111
bin	-INF	0
bin	0	0
bin	7.12e-08	0
bin	1.424e-07	0
bin	2.136e-07	0
bin	2.848e-07	0
bin	3.56e-07	0
bin	4.272e-07	180
bin	4.984e-07	1665
bin	5.696e-07	2689
bin	6.408e-07	2934
bin	7.12e-07	3387
bin	7.832e-07	3672
bin	8.544e-07	4043
bin	9.256e-07	4529
bin	9.968e-07	4733
bin	1.068e-06	5087
bin	1.1392e-06	5413
bin	1.2104e-06	5688
bin	1.2816e-06	5836
bin	1.3528e-06	5908
bin	1.424e-06	5906
bin	1.4952e-06	5857
bin	1.5664e-06	5949
bin	1.6376e-06	5775
bin	1.7088e-06	5744
bin	1.78e-06	5703
bin	1.8512e-06	5641
bin	1.9224e-06	5427
bin	1.9936e-06	5476
bin	2.0648e-06	5595
bin	2.136e-06	5609
bin	2.2072e-06	5454
bin	2.2784e-06	5460
bin	2.3496e-06	5367
bin	2.4208e-06	5453
bin	2.492e-06	5395
bin	2.5632e-06	5327
bin	2.6344e-06	5368
bin	2.7056e-06	5125
bin	2.7768e-06	5243
bin	2.848e-06	5026
bin	2.9192e-06	4881
bin	2.9904e-06	4873
bin	3.0616e-06	4755
bin	3.1328e-06	4623
bin	3.204e-06	4549
bin	3.2752e-06	4507
bin	3.3464e-06	4289
bin	3.4176e-06	4172
bin	3.4888e-06	4127
bin	3.56e-06	4072
bin	3.6312e-06	4039
bin	3.7024e-06	3797
bin	3.7736e-06	3714
bin	3.8448e-06	3529
bin	3.916e-06	3450
bin	3.9872e-06	3313
bin	4.0584e-06	3200
bin	4.1296e-06	3054
bin	4.2008e-06	2910
bin	4.272e-06	2767
bin	4.3432e-06	2747
bin	4.4144e-06	2669
bin	4.4856e-06	2658
bin	4.5568e-06	2541
bin	4.628e-06	2476
bin	4.6992e-06	2439
bin	4.7704e-06	2348
bin	4.8416e-06	2333
bin	4.9128e-06	2266
bin	4.984e-06	2172
bin	5.0552e-06	2084
bin	5.1264e-06	1997
bin	5.1976e-06	1945
bin	5.2688e-06	1901
bin	5.34e-06	1835
bin	5.4112e-06	1826
bin	5.4824e-06	1778
bin	5.5536e-06	1692
bin	5.6248e-06	1640
bin	5.696e-06	1684
bin	5.7672e-06	1637
bin	5.8384e-06	1620
bin	5.9096e-06	1542
bin	5.9808e-06	1555
bin	6.052e-06	1509
bin	6.1232e-06	1431
bin	6.1944e-06	1480
bin	6.2656e-06	1477
bin	6.3368e-06	1508
bin	6.408e-06	1432
bin	6.4792e-06	1476
bin	6.5504e-06	1451
bin	6.6216e-06	1415
bin	6.6928e-06	1332
bin	6.764e-06	1387
bin	6.8352e-06	1325
bin	6.9064e-06	1316
bin	6.9776e-06	1299
bin	7.0488e-06	1328
bin	7.12e-06	1288
bin	7.1912e-06	1259
bin	7.2624e-06	1225
bin	7.3336e-06	1235
bin	7.4048e-06	1217
bin	7.476e-06	1174
bin	7.5472e-06	1236
bin	7.6184e-06	1299
bin	7.6896e-06	1224
bin	7.7608e-06	1212
bin	7.832e-06	1217
bin	7.9032e-06	1243
bin	7.9744e-06	1179
bin	8.0456e-06	1179
bin	8.1168e-06	1140
bin	8.188e-06	1092
bin	8.2592e-06	1051
bin	8.3304e-06	1112
bin	8.4016e-06	1117
bin	8.4728e-06	1105
bin	8.544e-06	1053
bin	8.6152e-06	1046
bin	8.6864e-06	1060
bin	8.7576e-06	1103
bin	8.8288e-06	1120
bin	8.9e-06	1087
bin	8.9712e-06	1142
bin	9.0424e-06	1123
bin	9.1136e-06	1152
bin	9.1848e-06	1070
bin	9.256e-06	1017
bin	9.3272e-06	1016
bin	9.3984e-06	1004
bin	9.4696e-06	999
bin	9.5408e-06	1049
bin	9.612e-06	1029
bin	9.6832e-06	1077
bin	9.7544e-06	1027
bin	9.8256e-06	1048
bin	9.8968e-06	1030
bin	9.968e-06	987
bin	1.00392e-05	1054
bin	1.01104e-05	1010
bin	1.01816e-05	967
bin	1.02528e-05	986
bin	1.0324e-05	1007
bin	1.03952e-05	950
bin	1.04664e-05	966
bin	1.05376e-05	973
bin	1.06088e-05	901
bin	1.068e-05	946
bin	1.07512e-05	885
bin	1.08224e-05	922
bin	1.08936e-05	880
bin	1.09648e-05	887
bin	1.1036e-05	885
bin	1.11072e-05	857
bin	1.11784e-05	892
bin	1.12496e-05	872
bin	1.13208e-05	890
bin	1.1392e-05	894
bin	1.14632e-05	925
bin	1.15344e-05	907
bin	1.16056e-05	923
bin	1.16768e-05	964
bin	1.1748e-05	937
bin	1.18192e-05	959
bin	1.18904e-05	898
bin	1.19616e-05	886
bin	1.20328e-05	903
bin	1.2104e-05	915
bin	1.21752e-05	870
bin	1.22464e-05	900
bin	1.23176e-05	911
bin	1.23888e-05	882
bin	1.246e-05	850
bin	1.25312e-05	904
bin	1.26024e-05	900
bin	1.26736e-05	918
bin	1.27448e-05	908
bin	1.2816e-05	918
bin	1.28872e-05	855
bin	1.29584e-05	883
bin	1.30296e-05	925
bin	1.31008e-05	875
bin	1.3172e-05	841
bin	1.32432e-05	840
bin	1.33144e-05	819
bin	1.33856e-05	818
bin	1.34568e-05	816
bin	1.3528e-05	798
bin	1.35992e-05	760
bin	1.36704e-05	814
bin	1.37416e-05	816
bin	1.38128e-05	850
bin	1.3884e-05	806
bin	1.39552e-05	811
bin	1.40264e-05	799
bin	1.40976e-05	874
bin	1.41688e-05	847
bin	1.424e-05	829
bin	1.43112e-05	868
bin	1.43824e-05	806
bin	1.44536e-05	786
bin	1.45248e-05	801
bin	1.4596e-05	836
bin	1.46672e-05	805
bin	1.47384e-05	793
bin	1.48096e-05	790
bin	1.48808e-05	747
bin	1.4952e-05	818
bin	1.50232e-05	777
bin	1.50944e-05	796
bin	1.51656e-05	816
bin	1.52368e-05	745
bin	1.5308e-05	753
bin	1.53792e-05	706
bin	1.54504e-05	705
bin	1.55216e-05	667
bin	1.55928e-05	693
bin	1.5664e-05	732
bin	1.57352e-05	714
bin	1.58064e-05	723
bin	1.58776e-05	729
bin	1.59488e-05	737
bin	1.602e-05	732
bin	1.60912e-05	769
bin	1.61624e-05	738
bin	1.62336e-05	707
bin	1.63048e-05	686
bin	1.6376e-05	713
bin	1.64472e-05	744
bin	1.65184e-05	726
bin	1.65896e-05	716
bin	1.66608e-05	645
bin	1.6732e-05	631
bin	1.68032e-05	629
bin	1.68744e-05	650
bin	1.69456e-05	652
bin	1.70168e-05	623
bin	1.7088e-05	626
bin	1.71592e-05	661
bin	1.72304e-05	633
bin	1.73016e-05	640
bin	1.73728e-05	644
bin	1.7444e-05	696
bin	1.75152e-05	718
bin	1.75864e-05	728
bin	1.76576e-05	657
bin	1.77288e-05	666
bin	1.78e-05	731
bin	1.78712e-05	685
bin	1.79424e-05	716
bin	1.80136e-05	661
bin	1.80848e-05	674
bin	1.8156e-05	634
bin	1.82272e-05	673
bin	1.82984e-05	692
bin	1.83696e-05	713
bin	1.84408e-05	696
bin	1.8512e-05	692
bin	1.85832e-05	694
bin	1.86544e-05	682
bin	1.87256e-05	683
bin	1.87968e-05	681
bin	1.8868e-05	700
bin	1.89392e-05	723
bin	1.90104e-05	701
bin	1.90816e-05	644
bin	1.91528e-05	662
bin	1.9224e-05	643
bin	1.92952e-05	612
bin	1.93664e-05	643
bin	1.94376e-05	586
bin	1.95088e-05	655
bin	1.958e-05	635
bin	1.96512e-05	612
bin	1.97224e-05	629
bin	1.97936e-05	589
bin	1.98648e-05	603
bin	1.9936e-05	559
bin	2.00072e-05	608
bin	2.00784e-05	603
bin	2.01496e-05	642
bin	2.02208e-05	638
bin	2.0292e-05	620
bin	2.03632e-05	655
bin	2.04344e-05	644
bin	2.05056e-05	627
bin	2.05768e-05	581
bin	2.0648e-05	596
bin	2.07192e-05	599
bin	2.07904e-05	663
bin	2.08616e-05	624
bin	2.09328e-05	637
bin	2.1004e-05	619
bin	2.10752e-05	629
bin	2.11464e-05	636
bin	2.12176e-05	651
bin	2.12888e-05	634
bin	2.136e-05	617
bin	2.14312e-05	621
bin	2.15024e-05	586
bin	2.15736e-05	568
bin	2.16448e-05	622
bin	2.1716e-05	616
bin	2.17872e-05	591
bin	2.18584e-05	586
bin	2.19296e-05	603
bin	2.20008e-05	576
bin	2.2072e-05	541
bin	2.21432e-05	555
bin	2.22144e-05	552
bin	2.22856e-05	556
bin	2.23568e-05	569
bin	2.2428e-05	549
bin	2.24992e-05	539
bin	2.25704e-05	553
bin	2.26416e-05	547
bin	2.27128e-05	517
bin	2.2784e-05	565
bin	2.28552e-05	538
bin	2.29264e-05	574
bin	2.29976e-05	585
bin	2.30688e-05	630
bin	2.314e-05	604
bin	2.32112e-05	625
bin	2.32824e-05	649
bin	2.33536e-05	630
bin	2.34248e-05	622
bin	2.3496e-05	616
bin	2.35672e-05	598
bin	2.36384e-05	621
bin	2.37096e-05	594
bin	2.37808e-05	576
bin	2.3852e-05	610
bin	2.39232e-05	579
bin	2.39944e-05	560
bin	2.40656e-05	557
bin	2.41368e-05	589
bin	2.4208e-05	542
bin	2.42792e-05	556
bin	2.43504e-05	537
bin	2.44216e-05	540
bin	2.44928e-05	497
bin	2.4564e-05	532
bin	2.46352e-05	511
bin	2.47064e-05	533
bin	2.47776e-05	544
bin	2.48488e-05	533
bin	2.492e-05	575
bin	2.49912e-05	573
bin	2.50624e-05	574
bin	2.51336e-05	572
bin	2.52048e-05	609
bin	2.5276e-05	593
bin	2.53472e-05	633
bin	2.54184e-05	577
bin	2.54896e-05	594
bin	2.55608e-05	590
bin	2.5632e-05	587
bin	2.57032e-05	613
bin	2.57744e-05	584
bin	2.58456e-05	568
bin	2.59168e-05	552
bin	2.5988e-05	526
bin	2.60592e-05	557
bin	2.61304e-05	536
bin	2.62016e-05	550
bin	2.62728e-05	547
bin	2.6344e-05	530
bin	2.64152e-05	480
bin	2.64864e-05	555
bin	2.65576e-05	531
bin	2.66288e-05	572
bin	2.67e-05	516
bin	2.67712e-05	493
bin	2.68424e-05	554
bin	2.69136e-05	477
bin	2.69848e-05	499
bin	2.7056e-05	499
bin	2.71272e-05	511
bin	2.71984e-05	536
bin	2.72696e-05	517
bin	2.73408e-05	510
bin	2.7412e-05	517
bin	2.74832e-05	481
bin	2.75544e-05	486
bin	2.76256e-05	537
bin	2.76968e-05	559
bin	2.7768e-05	563
bin	2.78392e-05	560
bin	2.79104e-05	549
bin	2.79816e-05	556
bin	2.80528e-05	561
bin	2.8124e-05	503
bin	2.81952e-05	569
bin	2.82664e-05	581
bin	2.83376e-05	562
bin	2.84088e-05	583
bin	2.848e-05	571
bin	2.85512e-05	542
bin	2.86224e-05	504
bin	2.86936e-05	500
bin	2.87648e-05	531
bin	2.8836e-05	523
bin	2.89072e-05	532
bin	2.89784e-05	528
bin	2.90496e-05	572
bin	2.91208e-05	575
bin	2.9192e-05	576
bin	2.92632e-05	508
bin	2.93344e-05	490
bin	2.94056e-05	472
bin	2.94768e-05	506
bin	2.9548e-05	511
bin	2.96192e-05	500
bin	2.96904e-05	499
bin	2.97616e-05	461
bin	2.98328e-05	499
bin	2.9904e-05	475
bin	2.99752e-05	477
bin	3.00464e-05	521
bin	3.01176e-05	521
bin	3.01888e-05	530
bin	3.026e-05	539
bin	3.03312e-05	521
bin	3.04024e-05	518
bin	3.04736e-05	526
bin	3.05448e-05	519
bin	3.0616e-05	515
bin	3.06872e-05	496
bin	3.07584e-05	482
bin	3.08296e-05	463
bin	3.09008e-05	466
bin	3.0972e-05	506
bin	3.10432e-05	486
bin	3.11144e-05	422
bin	3.11856e-05	459
bin	3.12568e-05	431
bin	3.1328e-05	465
bin	3.13992e-05	476
bin	3.14704e-05	449
bin	3.15416e-05	490
bin	3.16128e-05	466
bin	3.1684e-05	514
bin	3.17552e-05	486
bin	3.18264e-05	491
bin	3.18976e-05	492
bin	3.19688e-05	518
bin	3.204e-05	470
bin	3.21112e-05	449
bin	3.21824e-05	523
bin	3.22536e-05	508
bin	3.23248e-05	527
bin	3.2396e-05	496
bin	3.24672e-05	490
bin	3.25384e-05	452
bin	3.26096e-05	462
bin	3.26808e-05	477
bin	3.2752e-05	434
bin	3.28232e-05	472
bin	3.28944e-05	474
bin	3.29656e-05	472
bin	3.30368e-05	475
bin	3.3108e-05	512
bin	3.31792e-05	470
bin	3.32504e-05	444
bin	3.33216e-05	479
bin	3.33928e-05	470
bin	3.3464e-05	460
bin	3.35352e-05	467
bin	3.36064e-05	471
bin	3.36776e-05	466
bin	3.37488e-05	459
bin	3.382e-05	478
bin	3.38912e-05	515
bin	3.39624e-05	494
bin	3.40336e-05	447
bin	3.41048e-05	466
bin	3.4176e-05	429
bin	3.42472e-05	402
bin	3.43184e-05	428
bin	3.43896e-05	430
bin	3.44608e-05	405
bin	3.4532e-05	422
bin	3.46032e-05	427
bin	3.46744e-05	485
bin	3.47456e-05	451
bin	3.48168e-05	437
bin	3.4888e-05	464
bin	3.49592e-05	478
bin	3.50304e-05	506
bin	3.51016e-05	482
bin	3.51728e-05	484
bin	3.5244e-05	460
bin	3.53152e-05	450
bin	3.53864e-05	472
bin	3.54576e-05	432
bin	3.55288e-05	432
bin	3.56e-05	5698774
statistic Torus3d_bub.timer 	"Life Times"
field count 6291456
field mean 0.0067733113940382
field stddev 0.0037212271891323
field sum 42613.99060989
field sqrsum 375.758951281
field min 1.46366657e-06
field max 0.015671735975824
bin	-INF	0
bin	0	0
bin	8.544e-07	18
bin	1.7088e-06	153
bin	2.5632e-06	402
bin	3.4176e-06	872
bin	4.272e-06	1507
bin	5.1264e-06	2042
bin	5.9808e-06	2297
bin	6.8352e-06	2340
bin	7.6896e-06	2568
bin	8.544e-06	2646
bin	9.3984e-06	2865
bin	1.02528e-05	3221
bin	1.11072e-05	3276
bin	1.19616e-05	3572
bin	1.2816e-05	3662
bin	1.36704e-05	3631
bin	1.45248e-05	3728
bin	1.53792e-05	3692
bin	1.62336e-05	3640
bin	1.7088e-05	3571
bin	1.79424e-05	3331
bin	1.87968e-05	3257
bin	1.96512e-05	3174
bin	2.05056e-05	3247
bin	2.136e-05	3309
bin	2.22144e-05	3283
bin	2.30688e-05	3298
bin	2.39232e-05	3375
bin	2.47776e-05	3405
bin	2.5632e-05	3358
bin	2.64864e-05	3457
bin	2.73408e-05	3495
bin	2.81952e-05	3441
bin	2.90496e-05	3395
bin	2.9904e-05	3406
bin	3.07584e-05	3405
bin	3.16128e-05	3520
bin	3.24672e-05	3510
bin	3.33216e-05	3434
bin	3.4176e-05	3497
bin	3.50304e-05	3496
bin	3.58848e-05	3470
bin	3.67392e-05	3525
bin	3.75936e-05	3474
bin	3.8448e-05	3486
bin	3.93024e-05	3594
bin	4.01568e-05	3540
bin	4.10112e-05	3667
bin	4.18656e-05	3593
bin	4.272e-05	3560
bin	4.35744e-05	3611
bin	4.44288e-05	3615
bin	4.52832e-05	3683
bin	4.61376e-05	3524
bin	4.6992e-05	3514
bin	4.78464e-05	3652
bin	4.87008e-05	3597
bin	4.95552e-05	3643
bin	5.04096e-05	3648
bin	5.1264e-05	3645
bin	5.21184e-05	3629
bin	5.29728e-05	3620
bin	5.38272e-05	3589
bin	5.46816e-05	3591
bin	5.5536e-05	3630
bin	5.63904e-05	3495
bin	5.72448e-05	3493
bin	5.80992e-05	3473
bin	5.89536e-05	3426
bin	5.9808e-05	3390
bin	6.06624e-05	3467
bin	6.15168e-05	3397
bin	6.23712e-05	3246
bin	6.32256e-05	2997
bin	6.408e-05	2935
bin	6.49344e-05	2739
bin	6.57888e-05	2629
bin	6.66432e-05	2542
bin	6.74976e-05	2355
bin	6.8352e-05	2211
bin	6.92064e-05	2173
bin	7.00608e-05	1963
bin	7.09152e-05	1950
bin	7.17696e-05	1868
bin	7.2624e-05	1730
bin	7.34784e-05	1665
bin	7.43328e-05	1599
bin	7.51872e-05	1478
bin	7.60416e-05	1439
bin	7.6896e-05	1317
bin	7.77504e-05	1244
bin	7.86048e-05	1216
bin	7.94592e-05	1173
bin	8.03136e-05	1226
bin	8.1168e-05	1182
bin	8.20224e-05	1169
bin	8.28768e-05	1139
bin	8.37312e-05	1110
bin	8.45856e-05	1027
bin	8.544e-05	1018
bin	8.62944e-05	1027
bin	8.71488e-05	991
bin	8.80032e-05	1012
bin	8.88576e-05	979
bin	8.9712e-05	982
bin	9.05664e-05	972
bin	9.14208e-05	960
bin	9.22752e-05	969
bin	9.31296e-05	987
bin	9.3984e-05	1039
bin	9.48384e-05	1048
bin	9.56928e-05	1027
bin	9.65472e-05	1006
bin	9.74016e-05	1058
bin	9.8256e-05	972
bin	9.91104e-05	996
bin	9.99648e-05	1011
bin	0.0001008192	942
bin	0.0001016736	960
bin	0.000102528	921
bin	0.0001033824	909
bin	0.0001042368	945
bin	0.0001050912	973
bin	0.0001059456	930
bin	0.0001068	928
bin	0.0001076544	903
bin	0.0001085088	942
bin	0.0001093632	947
bin	0.0001102176	927
bin	0.000111072	932
bin	0.0001119264	888
bin	0.0001127808	925
bin	0.0001136352	901
bin	0.0001144896	976
bin	0.000115344	987
bin	0.0001161984	953
bin	0.0001170528	932
bin	0.0001179072	991
bin	0.0001187616	978
bin	0.000119616	930
bin	0.0001204704	978
bin	0.0001213248	936
bin	0.0001221792	990
bin	0.0001230336	973
bin	0.000123888	967
bin	0.0001247424	983
bin	0.0001255968	955
bin	0.0001264512	905
bin	0.0001273056	929
bin	0.00012816	890
bin	0.0001290144	878
bin	0.0001298688	877
bin	0.0001307232	812
bin	0.0001315776	820
bin	0.000132432	822
bin	0.0001332864	805
bin	0.0001341408	817
bin	0.0001349952	751
bin	0.0001358496	719
bin	0.000136704	784
bin	0.0001375584	765
bin	0.0001384128	718
bin	0.0001392672	733
bin	0.0001401216	719
bin	0.000140976	730
bin	0.0001418304	690
bin	0.0001426848	691
bin	0.0001435392	710
bin	0.0001443936	733
bin	0.000145248	723
bin	0.0001461024	725
bin	0.0001469568	744
bin	0.0001478112	727
bin	0.0001486656	692
bin	0.00014952	683
bin	0.0001503744	685
bin	0.0001512288	715
bin	0.0001520832	689
bin	0.0001529376	667
bin	0.000153792	682
bin	0.0001546464	673
bin	0.0001555008	638
bin	0.0001563552	664
bin	0.0001572096	651
bin	0.000158064	673
bin	0.0001589184	642
bin	0.0001597728	664
bin	0.0001606272	670
bin	0.0001614816	652
bin	0.000162336	630
bin	0.0001631904	615
bin	0.0001640448	669
bin	0.0001648992	651
bin	0.0001657536	674
bin	0.000166608	678
bin	0.0001674624	681
bin	0.0001683168	675
bin	0.0001691712	710
bin	0.0001700256	703
bin	0.00017088	669
bin	0.0001717344	682
bin	0.0001725888	633
bin	0.0001734432	677
bin	0.0001742976	670
bin	0.000175152	692
bin	0.0001760064	674
bin	0.0001768608	658
bin	0.0001777152	681
bin	0.0001785696	679
bin	0.000179424	639
bin	0.0001802784	654
bin	0.0001811328	657
bin	0.0001819872	647
bin	0.0001828416	682
bin	0.000183696	663
bin	0.0001845504	685
bin	0.0001854048	684
bin	0.0001862592	701
bin	0.0001871136	696
bin	0.000187968	702
bin	0.0001888224	684
bin	0.0001896768	655
bin	0.0001905312	670
bin	0.0001913856	698
bin	0.00019224	717
bin	0.0001930944	662
bin	0.0001939488	699
bin	0.0001948032	643
bin	0.0001956576	681
bin	0.000196512	687
bin	0.0001973664	690
bin	0.0001982208	636
bin	0.0001990752	698
bin	0.0001999296	672
bin	0.000200784	663
bin	0.0002016384	651
bin	0.0002024928	648
bin	0.0002033472	613
bin	0.0002042016	625
bin	0.000205056	621
bin	0.0002059104	596
bin	0.0002067648	550
bin	0.0002076192	562
bin	0.0002084736	556
bin	0.000209328	557
bin	0.0002101824	541
bin	0.0002110368	574
bin	0.0002118912	545
bin	0.0002127456	584
bin	0.0002136	607
bin	0.0002144544	597
bin	0.0002153088	613
bin	0.0002161632	591
bin	0.0002170176	621
bin	0.000217872	618
bin	0.0002187264	599
bin	0.0002195808	577
bin	0.0002204352	601
bin	0.0002212896	574
bin	0.000222144	560
bin	0.0002229984	580
bin	0.0002238528	562
bin	0.0002247072	593
bin	0.0002255616	571
bin	0.000226416	550
bin	0.0002272704	568
bin	0.0002281248	565
bin	0.0002289792	543
bin	0.0002298336	556
bin	0.000230688	560
bin	0.0002315424	584
bin	0.0002323968	527
bin	0.0002332512	544
bin	0.0002341056	589
bin	0.00023496	553
bin	0.0002358144	524
bin	0.0002366688	511
bin	0.0002375232	569
bin	0.0002383776	604
bin	0.000239232	602
bin	0.0002400864	595
bin	0.0002409408	599
bin	0.0002417952	613
bin	0.0002426496	629
bin	0.000243504	617
bin	0.0002443584	611
bin	0.0002452128	632
bin	0.0002460672	648
bin	0.0002469216	621
bin	0.000247776	619
bin	0.0002486304	565
bin	0.0002494848	593
bin	0.0002503392	616
bin	0.0002511936	554
bin	0.000252048	560
bin	0.0002529024	580
bin	0.0002537568	606
bin	0.0002546112	585
bin	0.0002554656	532
bin	0.00025632	506
bin	0.0002571744	538
bin	0.0002580288	532
bin	0.0002588832	541
bin	0.0002597376	517
bin	0.000260592	502
bin	0.0002614464	497
bin	0.0002623008	528
bin	0.0002631552	556
bin	0.0002640096	555
bin	0.000264864	559
bin	0.0002657184	515
bin	0.0002665728	563
bin	0.0002674272	522
bin	0.0002682816	547
bin	0.000269136	559
bin	0.0002699904	538
bin	0.0002708448	588
bin	0.0002716992	552
bin	0.0002725536	585
bin	0.000273408	537
bin	0.0002742624	502
bin	0.0002751168	543
bin	0.0002759712	540
bin	0.0002768256	490
bin	0.00027768	508
bin	0.0002785344	488
bin	0.0002793888	493
bin	0.0002802432	517
bin	0.0002810976	472
bin	0.000281952	511
bin	0.0002828064	470
bin	0.0002836608	502
bin	0.0002845152	502
bin	0.0002853696	466
bin	0.000286224	467
bin	0.0002870784	498
bin	0.0002879328	486
bin	0.0002887872	486
bin	0.0002896416	513
bin	0.000290496	469
bin	0.0002913504	456
bin	0.0002922048	457
bin	0.0002930592	486
bin	0.0002939136	472
bin	0.000294768	470
bin	0.0002956224	478
bin	0.0002964768	486
bin	0.0002973312	475
bin	0.0002981856	481
bin	0.00029904	506
bin	0.0002998944	511
bin	0.0003007488	521
bin	0.0003016032	550
bin	0.0003024576	519
bin	0.000303312	493
bin	0.0003041664	527
bin	0.0003050208	514
bin	0.0003058752	534
bin	0.0003067296	478
bin	0.000307584	535
bin	0.0003084384	554
bin	0.0003092928	524
bin	0.0003101472	544
bin	0.0003110016	576
bin	0.000311856	581
bin	0.0003127104	568
bin	0.0003135648	544
bin	0.0003144192	553
bin	0.0003152736	509
bin	0.000316128	506
bin	0.0003169824	509
bin	0.0003178368	492
bin	0.0003186912	488
bin	0.0003195456	500
bin	0.0003204	485
bin	0.0003212544	468
bin	0.0003221088	476
bin	0.0003229632	505
bin	0.0003238176	459
bin	0.000324672	473
bin	0.0003255264	460
bin	0.0003263808	447
bin	0.0003272352	419
bin	0.0003280896	412
bin	0.000328944	445
bin	0.0003297984	448
bin	0.0003306528	374
bin	0.0003315072	434
bin	0.0003323616	447
bin	0.000333216	447
bin	0.0003340704	439
bin	0.0003349248	439
bin	0.0003357792	436
bin	0.0003366336	450
bin	0.000337488	396
bin	0.0003383424	453
bin	0.0003391968	440
bin	0.0003400512	401
bin	0.0003409056	413
bin	0.00034176	389
bin	0.0003426144	446
bin	0.0003434688	429
bin	0.0003443232	400
bin	0.0003451776	421
bin	0.000346032	455
bin	0.0003468864	433
bin	0.0003477408	409
bin	0.0003485952	487
bin	0.0003494496	464
bin	0.000350304	473
bin	0.0003511584	449
bin	0.0003520128	446
bin	0.0003528672	475
bin	0.0003537216	419
bin	0.000354576	451
bin	0.0003554304	441
bin	0.0003562848	452
bin	0.0003571392	442
bin	0.0003579936	449
bin	0.000358848	493
bin	0.0003597024	493
bin	0.0003605568	446
bin	0.0003614112	469
bin	0.0003622656	475
bin	0.00036312	472
bin	0.0003639744	470
bin	0.0003648288	467
bin	0.0003656832	474
bin	0.0003665376	438
bin	0.000367392	482
bin	0.0003682464	463
bin	0.0003691008	488
bin	0.0003699552	492
bin	0.0003708096	453
bin	0.000371664	466
bin	0.0003725184	434
bin	0.0003733728	459
bin	0.0003742272	443
bin	0.0003750816	418
bin	0.000375936	422
bin	0.0003767904	436
bin	0.0003776448	416
bin	0.0003784992	435
bin	0.0003793536	443
bin	0.000380208	426
bin	0.0003810624	414
bin	0.0003819168	435
bin	0.0003827712	428
bin	0.0003836256	445
bin	0.00038448	433
bin	0.0003853344	465
bin	0.0003861888	410
bin	0.0003870432	440
bin	0.0003878976	432
bin	0.000388752	431
bin	0.0003896064	413
bin	0.0003904608	437
bin	0.0003913152	413
bin	0.0003921696	442
bin	0.000393024	416
bin	0.0003938784	403
bin	0.0003947328	402
bin	0.0003955872	411
bin	0.0003964416	368
bin	0.000397296	393
bin	0.0003981504	377
bin	0.0003990048	378
bin	0.0003998592	372
bin	0.0004007136	364
bin	0.000401568	411
bin	0.0004024224	379
bin	0.0004032768	395
bin	0.0004041312	408
bin	0.0004049856	413
bin	0.00040584	459
bin	0.0004066944	427
bin	0.0004075488	423
bin	0.0004084032	415
bin	0.0004092576	408
bin	0.000410112	459
bin	0.0004109664	452
bin	0.0004118208	450
bin	0.0004126752	437
bin	0.0004135296	417
bin	0.000414384	407
bin	0.0004152384	413
bin	0.0004160928	406
bin	0.0004169472	389
bin	0.0004178016	424
bin	0.000418656	447
bin	0.0004195104	449
bin	0.0004203648	459
bin	0.0004212192	423
bin	0.0004220736	406
bin	0.000422928	401
bin	0.0004237824	399
bin	0.0004246368	373
bin	0.0004254912	388
bin	0.0004263456	399
bin	0.0004272	5772423
