version 2
run Bitcomplement-3-20120709-19:12:52-24865
attr alg 3
attr buf 8
attr configname Bitcomplement
attr datetime 20120709-19:12:52
attr delta 0.2
attr experiment Bitcomplement
attr ext true
attr inifile altro.ini
attr iterationvars "$buf=8, $ext=true, $ofedge=1, $delta=0.2, $alg=3"
attr iterationvars2 "$buf=8, $ext=true, $ofedge=1, $delta=0.2, $alg=3, $repetition=0"
attr measurement "$buf=8, $ext=true, $ofedge=1, $delta=0.2, $alg=3"
attr network Torus3d_bub
attr ofedge 1
attr processid 24865
attr repetition 0
attr replication #0
attr resultdir altro-results
attr runnumber 3
attr seedset 3

scalar . 	alg 	3
scalar . 	buf 	8
scalar . 	delta 	0.2
scalar . 	ofedge 	1
scalar Torus3d_bub.timer 	#endTime 	0.006972748322939
scalar Torus3d_bub.timer 	#totalHops 	91223586
scalar Torus3d_bub.timer 	#totalPacks 	6291456
scalar Torus3d_bub.timer 	#totalDerouted 	3256109
scalar Torus3d_bub.timer 	#totalOutFlanked 	2324524
scalar Torus3d_bub.timer 	#totalCQRed 	931585
scalar Torus3d_bub.timer 	#LB 	0.000786432
scalar Torus3d_bub.timer 	#ratio 	0.11278651739269
statistic Torus3d_bub.timer 	"Hop Times"
field count 6291456
field mean 2.4329436161986e-05
field stddev 7.4533888049932e-05
field sum 153.06757711794
field sqrsum 0.038674970750854
field min 4.25555545e-07
field max 0.001816664997163
bin	-INF	0
bin	0	0
bin	7.12e-08	0
bin	1.424e-07	0
bin	2.136e-07	0
bin	2.848e-07	0
bin	3.56e-07	1
bin	4.272e-07	2182
bin	4.984e-07	15868
bin	5.696e-07	26316
bin	6.408e-07	24922
bin	7.12e-07	25656
bin	7.832e-07	27137
bin	8.544e-07	32276
bin	9.256e-07	39034
bin	9.968e-07	46128
bin	1.068e-06	52555
bin	1.1392e-06	57907
bin	1.2104e-06	62334
bin	1.2816e-06	66601
bin	1.3528e-06	69816
bin	1.424e-06	72409
bin	1.4952e-06	74861
bin	1.5664e-06	74676
bin	1.6376e-06	74284
bin	1.7088e-06	72917
bin	1.78e-06	72418
bin	1.8512e-06	70747
bin	1.9224e-06	70455
bin	1.9936e-06	68844
bin	2.0648e-06	68383
bin	2.136e-06	67602
bin	2.2072e-06	67174
bin	2.2784e-06	66303
bin	2.3496e-06	65250
bin	2.4208e-06	64660
bin	2.492e-06	64211
bin	2.5632e-06	64398
bin	2.6344e-06	64045
bin	2.7056e-06	63878
bin	2.7768e-06	63547
bin	2.848e-06	62577
bin	2.9192e-06	62371
bin	2.9904e-06	62343
bin	3.0616e-06	61579
bin	3.1328e-06	61337
bin	3.204e-06	61386
bin	3.2752e-06	60520
bin	3.3464e-06	59761
bin	3.4176e-06	59425
bin	3.4888e-06	59018
bin	3.56e-06	58356
bin	3.6312e-06	58026
bin	3.7024e-06	57838
bin	3.7736e-06	57159
bin	3.8448e-06	55917
bin	3.916e-06	54928
bin	3.9872e-06	54879
bin	4.0584e-06	53640
bin	4.1296e-06	52963
bin	4.2008e-06	51804
bin	4.272e-06	51100
bin	4.3432e-06	50207
bin	4.4144e-06	49036
bin	4.4856e-06	48316
bin	4.5568e-06	47787
bin	4.628e-06	47494
bin	4.6992e-06	46889
bin	4.7704e-06	45985
bin	4.8416e-06	45545
bin	4.9128e-06	44880
bin	4.984e-06	44198
bin	5.0552e-06	43583
bin	5.1264e-06	42865
bin	5.1976e-06	41993
bin	5.2688e-06	41259
bin	5.34e-06	40670
bin	5.4112e-06	39490
bin	5.4824e-06	38980
bin	5.5536e-06	38205
bin	5.6248e-06	37670
bin	5.696e-06	36502
bin	5.7672e-06	36232
bin	5.8384e-06	35397
bin	5.9096e-06	34344
bin	5.9808e-06	33467
bin	6.052e-06	33014
bin	6.1232e-06	32118
bin	6.1944e-06	31372
bin	6.2656e-06	30824
bin	6.3368e-06	30065
bin	6.408e-06	29495
bin	6.4792e-06	28830
bin	6.5504e-06	27864
bin	6.6216e-06	27401
bin	6.6928e-06	26727
bin	6.764e-06	25842
bin	6.8352e-06	24990
bin	6.9064e-06	24840
bin	6.9776e-06	24431
bin	7.0488e-06	24033
bin	7.12e-06	23584
bin	7.1912e-06	23234
bin	7.2624e-06	22604
bin	7.3336e-06	22023
bin	7.4048e-06	21012
bin	7.476e-06	20792
bin	7.5472e-06	19985
bin	7.6184e-06	19227
bin	7.6896e-06	18881
bin	7.7608e-06	18312
bin	7.832e-06	17671
bin	7.9032e-06	16938
bin	7.9744e-06	16653
bin	8.0456e-06	16313
bin	8.1168e-06	16244
bin	8.188e-06	15458
bin	8.2592e-06	15129
bin	8.3304e-06	14567
bin	8.4016e-06	14139
bin	8.4728e-06	13526
bin	8.544e-06	13179
bin	8.6152e-06	12898
bin	8.6864e-06	12065
bin	8.7576e-06	11965
bin	8.8288e-06	11598
bin	8.9e-06	11434
bin	8.9712e-06	10912
bin	9.0424e-06	11190
bin	9.1136e-06	10425
bin	9.1848e-06	10506
bin	9.256e-06	10151
bin	9.3272e-06	10267
bin	9.3984e-06	10017
bin	9.4696e-06	10021
bin	9.5408e-06	9767
bin	9.612e-06	9229
bin	9.6832e-06	9139
bin	9.7544e-06	8635
bin	9.8256e-06	8876
bin	9.8968e-06	8349
bin	9.968e-06	8174
bin	1.00392e-05	7898
bin	1.01104e-05	7763
bin	1.01816e-05	7506
bin	1.02528e-05	7258
bin	1.0324e-05	7034
bin	1.03952e-05	6683
bin	1.04664e-05	6613
bin	1.05376e-05	6273
bin	1.06088e-05	6180
bin	1.068e-05	5863
bin	1.07512e-05	5905
bin	1.08224e-05	5639
bin	1.08936e-05	5449
bin	1.09648e-05	5474
bin	1.1036e-05	5336
bin	1.11072e-05	5292
bin	1.11784e-05	4946
bin	1.12496e-05	4862
bin	1.13208e-05	4780
bin	1.1392e-05	4680
bin	1.14632e-05	4497
bin	1.15344e-05	4454
bin	1.16056e-05	4415
bin	1.16768e-05	4375
bin	1.1748e-05	4371
bin	1.18192e-05	4172
bin	1.18904e-05	4229
bin	1.19616e-05	4213
bin	1.20328e-05	4084
bin	1.2104e-05	3959
bin	1.21752e-05	3932
bin	1.22464e-05	3878
bin	1.23176e-05	3877
bin	1.23888e-05	3830
bin	1.246e-05	3719
bin	1.25312e-05	3662
bin	1.26024e-05	3714
bin	1.26736e-05	3531
bin	1.27448e-05	3608
bin	1.2816e-05	3491
bin	1.28872e-05	3284
bin	1.29584e-05	3376
bin	1.30296e-05	3317
bin	1.31008e-05	3198
bin	1.3172e-05	3267
bin	1.32432e-05	3172
bin	1.33144e-05	3179
bin	1.33856e-05	3098
bin	1.34568e-05	3037
bin	1.3528e-05	3050
bin	1.35992e-05	3022
bin	1.36704e-05	2911
bin	1.37416e-05	3107
bin	1.38128e-05	2967
bin	1.3884e-05	3009
bin	1.39552e-05	3017
bin	1.40264e-05	2928
bin	1.40976e-05	2973
bin	1.41688e-05	2959
bin	1.424e-05	2798
bin	1.43112e-05	2704
bin	1.43824e-05	2582
bin	1.44536e-05	2651
bin	1.45248e-05	2689
bin	1.4596e-05	2513
bin	1.46672e-05	2344
bin	1.47384e-05	2247
bin	1.48096e-05	2058
bin	1.48808e-05	1985
bin	1.4952e-05	2020
bin	1.50232e-05	1898
bin	1.50944e-05	1845
bin	1.51656e-05	1761
bin	1.52368e-05	1774
bin	1.5308e-05	1630
bin	1.53792e-05	1715
bin	1.54504e-05	1696
bin	1.55216e-05	1641
bin	1.55928e-05	1619
bin	1.5664e-05	1585
bin	1.57352e-05	1559
bin	1.58064e-05	1606
bin	1.58776e-05	1538
bin	1.59488e-05	1540
bin	1.602e-05	1579
bin	1.60912e-05	1543
bin	1.61624e-05	1595
bin	1.62336e-05	1571
bin	1.63048e-05	1504
bin	1.6376e-05	1479
bin	1.64472e-05	1505
bin	1.65184e-05	1471
bin	1.65896e-05	1477
bin	1.66608e-05	1443
bin	1.6732e-05	1297
bin	1.68032e-05	1429
bin	1.68744e-05	1392
bin	1.69456e-05	1324
bin	1.70168e-05	1248
bin	1.7088e-05	1305
bin	1.71592e-05	1178
bin	1.72304e-05	1199
bin	1.73016e-05	1139
bin	1.73728e-05	1156
bin	1.7444e-05	1270
bin	1.75152e-05	1081
bin	1.75864e-05	1229
bin	1.76576e-05	1133
bin	1.77288e-05	1084
bin	1.78e-05	1108
bin	1.78712e-05	1202
bin	1.79424e-05	1104
bin	1.80136e-05	1203
bin	1.80848e-05	1249
bin	1.8156e-05	1135
bin	1.82272e-05	1154
bin	1.82984e-05	1090
bin	1.83696e-05	1181
bin	1.84408e-05	1255
bin	1.8512e-05	1189
bin	1.85832e-05	1217
bin	1.86544e-05	1242
bin	1.87256e-05	1246
bin	1.87968e-05	1260
bin	1.8868e-05	1252
bin	1.89392e-05	1197
bin	1.90104e-05	1294
bin	1.90816e-05	1181
bin	1.91528e-05	1260
bin	1.9224e-05	1260
bin	1.92952e-05	1179
bin	1.93664e-05	1143
bin	1.94376e-05	1197
bin	1.95088e-05	1164
bin	1.958e-05	1172
bin	1.96512e-05	1124
bin	1.97224e-05	1153
bin	1.97936e-05	1200
bin	1.98648e-05	1039
bin	1.9936e-05	1123
bin	2.00072e-05	1114
bin	2.00784e-05	1050
bin	2.01496e-05	1047
bin	2.02208e-05	981
bin	2.0292e-05	1087
bin	2.03632e-05	912
bin	2.04344e-05	989
bin	2.05056e-05	953
bin	2.05768e-05	980
bin	2.0648e-05	879
bin	2.07192e-05	885
bin	2.07904e-05	847
bin	2.08616e-05	822
bin	2.09328e-05	839
bin	2.1004e-05	831
bin	2.10752e-05	883
bin	2.11464e-05	911
bin	2.12176e-05	843
bin	2.12888e-05	862
bin	2.136e-05	881
bin	2.14312e-05	836
bin	2.15024e-05	920
bin	2.15736e-05	944
bin	2.16448e-05	889
bin	2.1716e-05	884
bin	2.17872e-05	935
bin	2.18584e-05	804
bin	2.19296e-05	815
bin	2.20008e-05	796
bin	2.2072e-05	739
bin	2.21432e-05	739
bin	2.22144e-05	703
bin	2.22856e-05	731
bin	2.23568e-05	725
bin	2.2428e-05	696
bin	2.24992e-05	686
bin	2.25704e-05	700
bin	2.26416e-05	726
bin	2.27128e-05	636
bin	2.2784e-05	643
bin	2.28552e-05	642
bin	2.29264e-05	662
bin	2.29976e-05	602
bin	2.30688e-05	578
bin	2.314e-05	598
bin	2.32112e-05	598
bin	2.32824e-05	541
bin	2.33536e-05	533
bin	2.34248e-05	532
bin	2.3496e-05	515
bin	2.35672e-05	511
bin	2.36384e-05	503
bin	2.37096e-05	458
bin	2.37808e-05	504
bin	2.3852e-05	488
bin	2.39232e-05	498
bin	2.39944e-05	511
bin	2.40656e-05	523
bin	2.41368e-05	506
bin	2.4208e-05	478
bin	2.42792e-05	519
bin	2.43504e-05	529
bin	2.44216e-05	540
bin	2.44928e-05	551
bin	2.4564e-05	545
bin	2.46352e-05	549
bin	2.47064e-05	536
bin	2.47776e-05	538
bin	2.48488e-05	564
bin	2.492e-05	488
bin	2.49912e-05	484
bin	2.50624e-05	468
bin	2.51336e-05	498
bin	2.52048e-05	472
bin	2.5276e-05	457
bin	2.53472e-05	433
bin	2.54184e-05	438
bin	2.54896e-05	483
bin	2.55608e-05	479
bin	2.5632e-05	423
bin	2.57032e-05	463
bin	2.57744e-05	419
bin	2.58456e-05	441
bin	2.59168e-05	404
bin	2.5988e-05	386
bin	2.60592e-05	433
bin	2.61304e-05	391
bin	2.62016e-05	409
bin	2.62728e-05	392
bin	2.6344e-05	456
bin	2.64152e-05	420
bin	2.64864e-05	385
bin	2.65576e-05	363
bin	2.66288e-05	364
bin	2.67e-05	386
bin	2.67712e-05	390
bin	2.68424e-05	391
bin	2.69136e-05	377
bin	2.69848e-05	374
bin	2.7056e-05	329
bin	2.71272e-05	387
bin	2.71984e-05	389
bin	2.72696e-05	416
bin	2.73408e-05	397
bin	2.7412e-05	413
bin	2.74832e-05	422
bin	2.75544e-05	461
bin	2.76256e-05	439
bin	2.76968e-05	446
bin	2.7768e-05	411
bin	2.78392e-05	414
bin	2.79104e-05	423
bin	2.79816e-05	403
bin	2.80528e-05	390
bin	2.8124e-05	415
bin	2.81952e-05	452
bin	2.82664e-05	470
bin	2.83376e-05	480
bin	2.84088e-05	463
bin	2.848e-05	422
bin	2.85512e-05	457
bin	2.86224e-05	451
bin	2.86936e-05	490
bin	2.87648e-05	447
bin	2.8836e-05	495
bin	2.89072e-05	470
bin	2.89784e-05	486
bin	2.90496e-05	479
bin	2.91208e-05	460
bin	2.9192e-05	444
bin	2.92632e-05	403
bin	2.93344e-05	403
bin	2.94056e-05	423
bin	2.94768e-05	397
bin	2.9548e-05	347
bin	2.96192e-05	387
bin	2.96904e-05	328
bin	2.97616e-05	363
bin	2.98328e-05	361
bin	2.9904e-05	315
bin	2.99752e-05	293
bin	3.00464e-05	305
bin	3.01176e-05	285
bin	3.01888e-05	290
bin	3.026e-05	312
bin	3.03312e-05	311
bin	3.04024e-05	339
bin	3.04736e-05	316
bin	3.05448e-05	332
bin	3.0616e-05	358
bin	3.06872e-05	331
bin	3.07584e-05	371
bin	3.08296e-05	383
bin	3.09008e-05	322
bin	3.0972e-05	336
bin	3.10432e-05	346
bin	3.11144e-05	347
bin	3.11856e-05	365
bin	3.12568e-05	300
bin	3.1328e-05	373
bin	3.13992e-05	372
bin	3.14704e-05	381
bin	3.15416e-05	404
bin	3.16128e-05	398
bin	3.1684e-05	355
bin	3.17552e-05	454
bin	3.18264e-05	521
bin	3.18976e-05	460
bin	3.19688e-05	457
bin	3.204e-05	380
bin	3.21112e-05	498
bin	3.21824e-05	508
bin	3.22536e-05	495
bin	3.23248e-05	492
bin	3.2396e-05	496
bin	3.24672e-05	483
bin	3.25384e-05	611
bin	3.26096e-05	577
bin	3.26808e-05	565
bin	3.2752e-05	560
bin	3.28232e-05	473
bin	3.28944e-05	646
bin	3.29656e-05	575
bin	3.30368e-05	615
bin	3.3108e-05	571
bin	3.31792e-05	567
bin	3.32504e-05	495
bin	3.33216e-05	568
bin	3.33928e-05	525
bin	3.3464e-05	441
bin	3.35352e-05	435
bin	3.36064e-05	388
bin	3.36776e-05	420
bin	3.37488e-05	400
bin	3.382e-05	440
bin	3.38912e-05	397
bin	3.39624e-05	429
bin	3.40336e-05	405
bin	3.41048e-05	407
bin	3.4176e-05	421
bin	3.42472e-05	335
bin	3.43184e-05	373
bin	3.43896e-05	298
bin	3.44608e-05	354
bin	3.4532e-05	351
bin	3.46032e-05	343
bin	3.46744e-05	371
bin	3.47456e-05	375
bin	3.48168e-05	344
bin	3.4888e-05	403
bin	3.49592e-05	421
bin	3.50304e-05	394
bin	3.51016e-05	373
bin	3.51728e-05	353
bin	3.5244e-05	426
bin	3.53152e-05	410
bin	3.53864e-05	380
bin	3.54576e-05	362
bin	3.55288e-05	342
bin	3.56e-05	643569
statistic Torus3d_bub.timer 	"Life Times"
field count 6291456
field mean 0.00028117920673106
field stddev 0.00072751204123158
field sum 1769.0266072633
field sqrsum 3.8273156056133
field min 1.463660714e-06
field max 0.006724917322939
bin	-INF	0
bin	0	0
bin	8.544e-07	259
bin	1.7088e-06	1803
bin	2.5632e-06	3659
bin	3.4176e-06	7282
bin	4.272e-06	11216
bin	5.1264e-06	13918
bin	5.9808e-06	13678
bin	6.8352e-06	13957
bin	7.6896e-06	14859
bin	8.544e-06	17559
bin	9.3984e-06	20046
bin	1.02528e-05	22810
bin	1.11072e-05	24419
bin	1.19616e-05	25109
bin	1.2816e-05	26438
bin	1.36704e-05	27647
bin	1.45248e-05	28260
bin	1.53792e-05	29998
bin	1.62336e-05	30911
bin	1.7088e-05	32342
bin	1.79424e-05	33386
bin	1.87968e-05	34340
bin	1.96512e-05	36252
bin	2.05056e-05	38152
bin	2.136e-05	40965
bin	2.22144e-05	41924
bin	2.30688e-05	42587
bin	2.39232e-05	44575
bin	2.47776e-05	45994
bin	2.5632e-05	46945
bin	2.64864e-05	48232
bin	2.73408e-05	49972
bin	2.81952e-05	49795
bin	2.90496e-05	50832
bin	2.9904e-05	50939
bin	3.07584e-05	51572
bin	3.16128e-05	52319
bin	3.24672e-05	52455
bin	3.33216e-05	52767
bin	3.4176e-05	53556
bin	3.50304e-05	53412
bin	3.58848e-05	54118
bin	3.67392e-05	55178
bin	3.75936e-05	55459
bin	3.8448e-05	55406
bin	3.93024e-05	56490
bin	4.01568e-05	56696
bin	4.10112e-05	57439
bin	4.18656e-05	57193
bin	4.272e-05	57208
bin	4.35744e-05	57751
bin	4.44288e-05	57039
bin	4.52832e-05	57011
bin	4.61376e-05	58018
bin	4.6992e-05	56736
bin	4.78464e-05	57150
bin	4.87008e-05	57360
bin	4.95552e-05	56750
bin	5.04096e-05	56547
bin	5.1264e-05	56494
bin	5.21184e-05	56314
bin	5.29728e-05	55573
bin	5.38272e-05	55115
bin	5.46816e-05	55304
bin	5.5536e-05	55636
bin	5.63904e-05	55246
bin	5.72448e-05	54860
bin	5.80992e-05	54184
bin	5.89536e-05	53497
bin	5.9808e-05	53886
bin	6.06624e-05	52952
bin	6.15168e-05	52923
bin	6.23712e-05	52513
bin	6.32256e-05	51396
bin	6.408e-05	51733
bin	6.49344e-05	50915
bin	6.57888e-05	50470
bin	6.66432e-05	49513
bin	6.74976e-05	49129
bin	6.8352e-05	48694
bin	6.92064e-05	48404
bin	7.00608e-05	48211
bin	7.09152e-05	47703
bin	7.17696e-05	47221
bin	7.2624e-05	46449
bin	7.34784e-05	46172
bin	7.43328e-05	46123
bin	7.51872e-05	45804
bin	7.60416e-05	45092
bin	7.6896e-05	44151
bin	7.77504e-05	44834
bin	7.86048e-05	43800
bin	7.94592e-05	43277
bin	8.03136e-05	43160
bin	8.1168e-05	42662
bin	8.20224e-05	41846
bin	8.28768e-05	41381
bin	8.37312e-05	40515
bin	8.45856e-05	40532
bin	8.544e-05	39198
bin	8.62944e-05	38351
bin	8.71488e-05	37869
bin	8.80032e-05	36720
bin	8.88576e-05	36050
bin	8.9712e-05	34961
bin	9.05664e-05	34243
bin	9.14208e-05	33307
bin	9.22752e-05	32620
bin	9.31296e-05	31668
bin	9.3984e-05	31098
bin	9.48384e-05	30694
bin	9.56928e-05	29259
bin	9.65472e-05	28770
bin	9.74016e-05	28224
bin	9.8256e-05	27289
bin	9.91104e-05	26690
bin	9.99648e-05	25416
bin	0.0001008192	24764
bin	0.0001016736	23885
bin	0.000102528	22716
bin	0.0001033824	21842
bin	0.0001042368	20920
bin	0.0001050912	20412
bin	0.0001059456	19885
bin	0.0001068	19214
bin	0.0001076544	18961
bin	0.0001085088	18003
bin	0.0001093632	17407
bin	0.0001102176	16864
bin	0.000111072	16280
bin	0.0001119264	15959
bin	0.0001127808	15425
bin	0.0001136352	14668
bin	0.0001144896	14015
bin	0.000115344	13400
bin	0.0001161984	12689
bin	0.0001170528	12248
bin	0.0001179072	11881
bin	0.0001187616	11346
bin	0.000119616	10974
bin	0.0001204704	10504
bin	0.0001213248	10280
bin	0.0001221792	10179
bin	0.0001230336	9657
bin	0.000123888	8622
bin	0.0001247424	7824
bin	0.0001255968	6859
bin	0.0001264512	6380
bin	0.0001273056	5769
bin	0.00012816	5041
bin	0.0001290144	4548
bin	0.0001298688	4037
bin	0.0001307232	3439
bin	0.0001315776	3117
bin	0.000132432	2752
bin	0.0001332864	2493
bin	0.0001341408	2303
bin	0.0001349952	2167
bin	0.0001358496	1982
bin	0.000136704	1734
bin	0.0001375584	1650
bin	0.0001384128	1499
bin	0.0001392672	1461
bin	0.0001401216	1406
bin	0.000140976	1310
bin	0.0001418304	1262
bin	0.0001426848	1279
bin	0.0001435392	1210
bin	0.0001443936	1156
bin	0.000145248	1147
bin	0.0001461024	1125
bin	0.0001469568	1063
bin	0.0001478112	998
bin	0.0001486656	1064
bin	0.00014952	1047
bin	0.0001503744	1022
bin	0.0001512288	1015
bin	0.0001520832	996
bin	0.0001529376	1014
bin	0.000153792	980
bin	0.0001546464	958
bin	0.0001555008	964
bin	0.0001563552	925
bin	0.0001572096	926
bin	0.000158064	969
bin	0.0001589184	961
bin	0.0001597728	926
bin	0.0001606272	928
bin	0.0001614816	959
bin	0.000162336	984
bin	0.0001631904	963
bin	0.0001640448	937
bin	0.0001648992	936
bin	0.0001657536	852
bin	0.000166608	925
bin	0.0001674624	925
bin	0.0001683168	841
bin	0.0001691712	875
bin	0.0001700256	936
bin	0.00017088	877
bin	0.0001717344	857
bin	0.0001725888	875
bin	0.0001734432	864
bin	0.0001742976	822
bin	0.000175152	819
bin	0.0001760064	814
bin	0.0001768608	804
bin	0.0001777152	781
bin	0.0001785696	829
bin	0.000179424	817
bin	0.0001802784	773
bin	0.0001811328	826
bin	0.0001819872	875
bin	0.0001828416	849
bin	0.000183696	859
bin	0.0001845504	844
bin	0.0001854048	882
bin	0.0001862592	878
bin	0.0001871136	884
bin	0.000187968	867
bin	0.0001888224	864
bin	0.0001896768	829
bin	0.0001905312	847
bin	0.0001913856	804
bin	0.00019224	817
bin	0.0001930944	776
bin	0.0001939488	823
bin	0.0001948032	749
bin	0.0001956576	787
bin	0.000196512	792
bin	0.0001973664	837
bin	0.0001982208	840
bin	0.0001990752	901
bin	0.0001999296	803
bin	0.000200784	830
bin	0.0002016384	830
bin	0.0002024928	858
bin	0.0002033472	870
bin	0.0002042016	903
bin	0.000205056	884
bin	0.0002059104	897
bin	0.0002067648	925
bin	0.0002076192	836
bin	0.0002084736	870
bin	0.000209328	874
bin	0.0002101824	903
bin	0.0002110368	926
bin	0.0002118912	953
bin	0.0002127456	1002
bin	0.0002136	988
bin	0.0002144544	980
bin	0.0002153088	974
bin	0.0002161632	1025
bin	0.0002170176	1002
bin	0.000217872	1041
bin	0.0002187264	1083
bin	0.0002195808	1044
bin	0.0002204352	1031
bin	0.0002212896	1089
bin	0.000222144	1039
bin	0.0002229984	1049
bin	0.0002238528	1053
bin	0.0002247072	1095
bin	0.0002255616	1076
bin	0.000226416	1110
bin	0.0002272704	1113
bin	0.0002281248	1169
bin	0.0002289792	1162
bin	0.0002298336	1124
bin	0.000230688	1153
bin	0.0002315424	1290
bin	0.0002323968	1279
bin	0.0002332512	1276
bin	0.0002341056	1294
bin	0.00023496	1254
bin	0.0002358144	1290
bin	0.0002366688	1442
bin	0.0002375232	1455
bin	0.0002383776	1414
bin	0.000239232	1416
bin	0.0002400864	1457
bin	0.0002409408	1474
bin	0.0002417952	1545
bin	0.0002426496	1543
bin	0.000243504	1597
bin	0.0002443584	1615
bin	0.0002452128	1582
bin	0.0002460672	1625
bin	0.0002469216	1516
bin	0.000247776	1526
bin	0.0002486304	1430
bin	0.0002494848	1366
bin	0.0002503392	1279
bin	0.0002511936	1071
bin	0.000252048	1080
bin	0.0002529024	989
bin	0.0002537568	939
bin	0.0002546112	790
bin	0.0002554656	737
bin	0.00025632	702
bin	0.0002571744	646
bin	0.0002580288	606
bin	0.0002588832	531
bin	0.0002597376	472
bin	0.000260592	425
bin	0.0002614464	444
bin	0.0002623008	455
bin	0.0002631552	440
bin	0.0002640096	412
bin	0.000264864	394
bin	0.0002657184	380
bin	0.0002665728	347
bin	0.0002674272	334
bin	0.0002682816	356
bin	0.000269136	352
bin	0.0002699904	340
bin	0.0002708448	340
bin	0.0002716992	338
bin	0.0002725536	335
bin	0.000273408	314
bin	0.0002742624	358
bin	0.0002751168	340
bin	0.0002759712	353
bin	0.0002768256	335
bin	0.00027768	371
bin	0.0002785344	359
bin	0.0002793888	326
bin	0.0002802432	337
bin	0.0002810976	341
bin	0.000281952	331
bin	0.0002828064	341
bin	0.0002836608	289
bin	0.0002845152	316
bin	0.0002853696	330
bin	0.000286224	362
bin	0.0002870784	372
bin	0.0002879328	352
bin	0.0002887872	339
bin	0.0002896416	319
bin	0.000290496	351
bin	0.0002913504	375
bin	0.0002922048	335
bin	0.0002930592	331
bin	0.0002939136	360
bin	0.000294768	347
bin	0.0002956224	331
bin	0.0002964768	346
bin	0.0002973312	369
bin	0.0002981856	367
bin	0.00029904	361
bin	0.0002998944	379
bin	0.0003007488	344
bin	0.0003016032	360
bin	0.0003024576	361
bin	0.000303312	339
bin	0.0003041664	320
bin	0.0003050208	330
bin	0.0003058752	379
bin	0.0003067296	321
bin	0.000307584	365
bin	0.0003084384	308
bin	0.0003092928	294
bin	0.0003101472	261
bin	0.0003110016	322
bin	0.000311856	315
bin	0.0003127104	335
bin	0.0003135648	345
bin	0.0003144192	305
bin	0.0003152736	300
bin	0.000316128	346
bin	0.0003169824	340
bin	0.0003178368	323
bin	0.0003186912	336
bin	0.0003195456	368
bin	0.0003204	382
bin	0.0003212544	350
bin	0.0003221088	353
bin	0.0003229632	360
bin	0.0003238176	370
bin	0.000324672	384
bin	0.0003255264	369
bin	0.0003263808	363
bin	0.0003272352	413
bin	0.0003280896	367
bin	0.000328944	357
bin	0.0003297984	353
bin	0.0003306528	361
bin	0.0003315072	356
bin	0.0003323616	388
bin	0.000333216	364
bin	0.0003340704	374
bin	0.0003349248	391
bin	0.0003357792	370
bin	0.0003366336	410
bin	0.000337488	375
bin	0.0003383424	409
bin	0.0003391968	420
bin	0.0003400512	430
bin	0.0003409056	418
bin	0.00034176	435
bin	0.0003426144	470
bin	0.0003434688	454
bin	0.0003443232	418
bin	0.0003451776	470
bin	0.000346032	462
bin	0.0003468864	455
bin	0.0003477408	468
bin	0.0003485952	450
bin	0.0003494496	482
bin	0.000350304	472
bin	0.0003511584	483
bin	0.0003520128	464
bin	0.0003528672	489
bin	0.0003537216	500
bin	0.000354576	520
bin	0.0003554304	538
bin	0.0003562848	539
bin	0.0003571392	537
bin	0.0003579936	578
bin	0.000358848	609
bin	0.0003597024	608
bin	0.0003605568	573
bin	0.0003614112	622
bin	0.0003622656	627
bin	0.00036312	652
bin	0.0003639744	635
bin	0.0003648288	681
bin	0.0003656832	698
bin	0.0003665376	714
bin	0.000367392	730
bin	0.0003682464	742
bin	0.0003691008	724
bin	0.0003699552	733
bin	0.0003708096	668
bin	0.000371664	673
bin	0.0003725184	693
bin	0.0003733728	618
bin	0.0003742272	599
bin	0.0003750816	562
bin	0.000375936	485
bin	0.0003767904	490
bin	0.0003776448	449
bin	0.0003784992	459
bin	0.0003793536	438
bin	0.000380208	398
bin	0.0003810624	382
bin	0.0003819168	357
bin	0.0003827712	353
bin	0.0003836256	306
bin	0.00038448	312
bin	0.0003853344	298
bin	0.0003861888	286
bin	0.0003870432	286
bin	0.0003878976	275
bin	0.000388752	259
bin	0.0003896064	263
bin	0.0003904608	217
bin	0.0003913152	256
bin	0.0003921696	252
bin	0.000393024	242
bin	0.0003938784	251
bin	0.0003947328	262
bin	0.0003955872	245
bin	0.0003964416	246
bin	0.000397296	244
bin	0.0003981504	221
bin	0.0003990048	212
bin	0.0003998592	196
bin	0.0004007136	213
bin	0.000401568	210
bin	0.0004024224	214
bin	0.0004032768	216
bin	0.0004041312	218
bin	0.0004049856	224
bin	0.00040584	211
bin	0.0004066944	220
bin	0.0004075488	217
bin	0.0004084032	242
bin	0.0004092576	246
bin	0.000410112	223
bin	0.0004109664	239
bin	0.0004118208	228
bin	0.0004126752	225
bin	0.0004135296	258
bin	0.000414384	252
bin	0.0004152384	233
bin	0.0004160928	245
bin	0.0004169472	231
bin	0.0004178016	231
bin	0.000418656	217
bin	0.0004195104	213
bin	0.0004203648	196
bin	0.0004212192	205
bin	0.0004220736	228
bin	0.000422928	236
bin	0.0004237824	224
bin	0.0004246368	202
bin	0.0004254912	227
bin	0.0004263456	236
bin	0.0004272	664764
