version 2
run Bitcomplement-13-20120709-19:35:49-24882
attr alg 1
attr buf 8
attr configname Bitcomplement
attr datetime 20120709-19:35:49
attr delta 0.2
attr experiment Bitcomplement
attr ext true
attr inifile altro.ini
attr iterationvars "$buf=8, $ext=true, $ofedge=2, $delta=0.2, $alg=1"
attr iterationvars2 "$buf=8, $ext=true, $ofedge=2, $delta=0.2, $alg=1, $repetition=0"
attr measurement "$buf=8, $ext=true, $ofedge=2, $delta=0.2, $alg=1"
attr network Torus3d_bub
attr ofedge 2
attr processid 24882
attr repetition 0
attr replication #0
attr resultdir altro-results
attr runnumber 13
attr seedset 13

scalar . 	alg 	1
scalar . 	buf 	8
scalar . 	delta 	0.2
scalar . 	ofedge 	2
scalar Torus3d_bub.timer 	#endTime 	0.012641230980256
scalar Torus3d_bub.timer 	#totalHops 	111009538
scalar Torus3d_bub.timer 	#totalPacks 	6291456
scalar Torus3d_bub.timer 	#totalDerouted 	3701930
scalar Torus3d_bub.timer 	#totalOutFlanked 	3701930
scalar Torus3d_bub.timer 	#totalCQRed 	0
scalar Torus3d_bub.timer 	#LB 	0.000786432
scalar Torus3d_bub.timer 	#ratio 	0.062211662869566
statistic Torus3d_bub.timer 	"Hop Times"
field count 6291456
field mean 0.00020990053978084
field stddev 0.00024184649738
field sum 1320.5800104074
field sqrsum 0.64517595053838
field min 4.23380787e-07
field max 0.003466650661251
bin	-INF	0
bin	0	0
bin	7.12e-08	0
bin	1.424e-07	0
bin	2.136e-07	0
bin	2.848e-07	0
bin	3.56e-07	1
bin	4.272e-07	467
bin	4.984e-07	4193
bin	5.696e-07	7464
bin	6.408e-07	8168
bin	7.12e-07	9460
bin	7.832e-07	10420
bin	8.544e-07	11892
bin	9.256e-07	13561
bin	9.968e-07	15061
bin	1.068e-06	15900
bin	1.1392e-06	17109
bin	1.2104e-06	17656
bin	1.2816e-06	18055
bin	1.3528e-06	18308
bin	1.424e-06	18597
bin	1.4952e-06	18474
bin	1.5664e-06	18363
bin	1.6376e-06	18155
bin	1.7088e-06	17730
bin	1.78e-06	17691
bin	1.8512e-06	17422
bin	1.9224e-06	17711
bin	1.9936e-06	17565
bin	2.0648e-06	17842
bin	2.136e-06	17842
bin	2.2072e-06	17906
bin	2.2784e-06	17849
bin	2.3496e-06	17754
bin	2.4208e-06	17959
bin	2.492e-06	17946
bin	2.5632e-06	18209
bin	2.6344e-06	18273
bin	2.7056e-06	18397
bin	2.7768e-06	18524
bin	2.848e-06	18648
bin	2.9192e-06	18385
bin	2.9904e-06	18571
bin	3.0616e-06	18800
bin	3.1328e-06	18672
bin	3.204e-06	18918
bin	3.2752e-06	18730
bin	3.3464e-06	18886
bin	3.4176e-06	18772
bin	3.4888e-06	18918
bin	3.56e-06	18722
bin	3.6312e-06	18312
bin	3.7024e-06	18414
bin	3.7736e-06	18678
bin	3.8448e-06	18477
bin	3.916e-06	18385
bin	3.9872e-06	18276
bin	4.0584e-06	18436
bin	4.1296e-06	18406
bin	4.2008e-06	18181
bin	4.272e-06	18019
bin	4.3432e-06	17870
bin	4.4144e-06	17511
bin	4.4856e-06	17517
bin	4.5568e-06	17283
bin	4.628e-06	17037
bin	4.6992e-06	16845
bin	4.7704e-06	16749
bin	4.8416e-06	16633
bin	4.9128e-06	16088
bin	4.984e-06	15785
bin	5.0552e-06	15609
bin	5.1264e-06	15238
bin	5.1976e-06	15013
bin	5.2688e-06	14735
bin	5.34e-06	14574
bin	5.4112e-06	14289
bin	5.4824e-06	14104
bin	5.5536e-06	13741
bin	5.6248e-06	13497
bin	5.696e-06	13176
bin	5.7672e-06	12967
bin	5.8384e-06	12835
bin	5.9096e-06	12420
bin	5.9808e-06	12092
bin	6.052e-06	11742
bin	6.1232e-06	11691
bin	6.1944e-06	11555
bin	6.2656e-06	11352
bin	6.3368e-06	11073
bin	6.408e-06	10710
bin	6.4792e-06	10569
bin	6.5504e-06	10194
bin	6.6216e-06	9987
bin	6.6928e-06	9801
bin	6.764e-06	9553
bin	6.8352e-06	9151
bin	6.9064e-06	9069
bin	6.9776e-06	8797
bin	7.0488e-06	8563
bin	7.12e-06	8306
bin	7.1912e-06	8235
bin	7.2624e-06	8043
bin	7.3336e-06	7947
bin	7.4048e-06	7616
bin	7.476e-06	7521
bin	7.5472e-06	7329
bin	7.6184e-06	7168
bin	7.6896e-06	6953
bin	7.7608e-06	6699
bin	7.832e-06	6561
bin	7.9032e-06	6410
bin	7.9744e-06	6289
bin	8.0456e-06	6207
bin	8.1168e-06	6155
bin	8.188e-06	6067
bin	8.2592e-06	5786
bin	8.3304e-06	5635
bin	8.4016e-06	5502
bin	8.4728e-06	5520
bin	8.544e-06	5394
bin	8.6152e-06	5210
bin	8.6864e-06	5140
bin	8.7576e-06	5017
bin	8.8288e-06	5057
bin	8.9e-06	4949
bin	8.9712e-06	4728
bin	9.0424e-06	4750
bin	9.1136e-06	4620
bin	9.1848e-06	4413
bin	9.256e-06	4332
bin	9.3272e-06	4482
bin	9.3984e-06	4451
bin	9.4696e-06	4364
bin	9.5408e-06	4288
bin	9.612e-06	4079
bin	9.6832e-06	4041
bin	9.7544e-06	3838
bin	9.8256e-06	3986
bin	9.8968e-06	3928
bin	9.968e-06	4021
bin	1.00392e-05	3910
bin	1.01104e-05	3811
bin	1.01816e-05	3792
bin	1.02528e-05	3745
bin	1.0324e-05	3590
bin	1.03952e-05	3537
bin	1.04664e-05	3539
bin	1.05376e-05	3348
bin	1.06088e-05	3265
bin	1.068e-05	3322
bin	1.07512e-05	3211
bin	1.08224e-05	3235
bin	1.08936e-05	3206
bin	1.09648e-05	3159
bin	1.1036e-05	3173
bin	1.11072e-05	3073
bin	1.11784e-05	3071
bin	1.12496e-05	3118
bin	1.13208e-05	2953
bin	1.1392e-05	3050
bin	1.14632e-05	2973
bin	1.15344e-05	2927
bin	1.16056e-05	2895
bin	1.16768e-05	2893
bin	1.1748e-05	2766
bin	1.18192e-05	2754
bin	1.18904e-05	2792
bin	1.19616e-05	2690
bin	1.20328e-05	2688
bin	1.2104e-05	2597
bin	1.21752e-05	2588
bin	1.22464e-05	2533
bin	1.23176e-05	2448
bin	1.23888e-05	2455
bin	1.246e-05	2399
bin	1.25312e-05	2416
bin	1.26024e-05	2494
bin	1.26736e-05	2390
bin	1.27448e-05	2379
bin	1.2816e-05	2492
bin	1.28872e-05	2406
bin	1.29584e-05	2297
bin	1.30296e-05	2408
bin	1.31008e-05	2385
bin	1.3172e-05	2393
bin	1.32432e-05	2350
bin	1.33144e-05	2349
bin	1.33856e-05	2299
bin	1.34568e-05	2196
bin	1.3528e-05	2188
bin	1.35992e-05	2260
bin	1.36704e-05	2162
bin	1.37416e-05	2177
bin	1.38128e-05	2096
bin	1.3884e-05	2116
bin	1.39552e-05	2045
bin	1.40264e-05	2088
bin	1.40976e-05	2123
bin	1.41688e-05	2037
bin	1.424e-05	2004
bin	1.43112e-05	1989
bin	1.43824e-05	1981
bin	1.44536e-05	1972
bin	1.45248e-05	1914
bin	1.4596e-05	1816
bin	1.46672e-05	1857
bin	1.47384e-05	1865
bin	1.48096e-05	1811
bin	1.48808e-05	1739
bin	1.4952e-05	1713
bin	1.50232e-05	1760
bin	1.50944e-05	1808
bin	1.51656e-05	1717
bin	1.52368e-05	1724
bin	1.5308e-05	1792
bin	1.53792e-05	1702
bin	1.54504e-05	1710
bin	1.55216e-05	1677
bin	1.55928e-05	1696
bin	1.5664e-05	1694
bin	1.57352e-05	1637
bin	1.58064e-05	1669
bin	1.58776e-05	1610
bin	1.59488e-05	1603
bin	1.602e-05	1680
bin	1.60912e-05	1694
bin	1.61624e-05	1648
bin	1.62336e-05	1622
bin	1.63048e-05	1642
bin	1.6376e-05	1653
bin	1.64472e-05	1614
bin	1.65184e-05	1582
bin	1.65896e-05	1583
bin	1.66608e-05	1591
bin	1.6732e-05	1557
bin	1.68032e-05	1564
bin	1.68744e-05	1505
bin	1.69456e-05	1515
bin	1.70168e-05	1533
bin	1.7088e-05	1556
bin	1.71592e-05	1496
bin	1.72304e-05	1500
bin	1.73016e-05	1500
bin	1.73728e-05	1528
bin	1.7444e-05	1511
bin	1.75152e-05	1466
bin	1.75864e-05	1499
bin	1.76576e-05	1511
bin	1.77288e-05	1394
bin	1.78e-05	1450
bin	1.78712e-05	1424
bin	1.79424e-05	1426
bin	1.80136e-05	1502
bin	1.80848e-05	1410
bin	1.8156e-05	1396
bin	1.82272e-05	1373
bin	1.82984e-05	1387
bin	1.83696e-05	1351
bin	1.84408e-05	1341
bin	1.8512e-05	1350
bin	1.85832e-05	1310
bin	1.86544e-05	1366
bin	1.87256e-05	1280
bin	1.87968e-05	1382
bin	1.8868e-05	1412
bin	1.89392e-05	1426
bin	1.90104e-05	1394
bin	1.90816e-05	1463
bin	1.91528e-05	1443
bin	1.9224e-05	1386
bin	1.92952e-05	1416
bin	1.93664e-05	1421
bin	1.94376e-05	1314
bin	1.95088e-05	1407
bin	1.958e-05	1325
bin	1.96512e-05	1278
bin	1.97224e-05	1328
bin	1.97936e-05	1355
bin	1.98648e-05	1282
bin	1.9936e-05	1304
bin	2.00072e-05	1247
bin	2.00784e-05	1268
bin	2.01496e-05	1247
bin	2.02208e-05	1257
bin	2.0292e-05	1291
bin	2.03632e-05	1243
bin	2.04344e-05	1199
bin	2.05056e-05	1196
bin	2.05768e-05	1228
bin	2.0648e-05	1108
bin	2.07192e-05	1249
bin	2.07904e-05	1140
bin	2.08616e-05	1105
bin	2.09328e-05	1105
bin	2.1004e-05	1100
bin	2.10752e-05	1155
bin	2.11464e-05	1119
bin	2.12176e-05	1180
bin	2.12888e-05	1125
bin	2.136e-05	1133
bin	2.14312e-05	1144
bin	2.15024e-05	1165
bin	2.15736e-05	1225
bin	2.16448e-05	1186
bin	2.1716e-05	1217
bin	2.17872e-05	1144
bin	2.18584e-05	1143
bin	2.19296e-05	1112
bin	2.20008e-05	1129
bin	2.2072e-05	1044
bin	2.21432e-05	1137
bin	2.22144e-05	1035
bin	2.22856e-05	1000
bin	2.23568e-05	973
bin	2.2428e-05	1032
bin	2.24992e-05	1048
bin	2.25704e-05	1016
bin	2.26416e-05	1010
bin	2.27128e-05	1010
bin	2.2784e-05	976
bin	2.28552e-05	962
bin	2.29264e-05	1060
bin	2.29976e-05	1017
bin	2.30688e-05	1012
bin	2.314e-05	1003
bin	2.32112e-05	960
bin	2.32824e-05	1025
bin	2.33536e-05	981
bin	2.34248e-05	1000
bin	2.3496e-05	992
bin	2.35672e-05	1004
bin	2.36384e-05	995
bin	2.37096e-05	990
bin	2.37808e-05	1028
bin	2.3852e-05	1089
bin	2.39232e-05	1118
bin	2.39944e-05	1113
bin	2.40656e-05	1076
bin	2.41368e-05	1090
bin	2.4208e-05	1068
bin	2.42792e-05	992
bin	2.43504e-05	1072
bin	2.44216e-05	1062
bin	2.44928e-05	1079
bin	2.4564e-05	1042
bin	2.46352e-05	1116
bin	2.47064e-05	1113
bin	2.47776e-05	1124
bin	2.48488e-05	1083
bin	2.492e-05	1096
bin	2.49912e-05	1122
bin	2.50624e-05	1125
bin	2.51336e-05	1006
bin	2.52048e-05	1012
bin	2.5276e-05	991
bin	2.53472e-05	993
bin	2.54184e-05	976
bin	2.54896e-05	978
bin	2.55608e-05	973
bin	2.5632e-05	947
bin	2.57032e-05	965
bin	2.57744e-05	924
bin	2.58456e-05	915
bin	2.59168e-05	947
bin	2.5988e-05	931
bin	2.60592e-05	948
bin	2.61304e-05	956
bin	2.62016e-05	880
bin	2.62728e-05	909
bin	2.6344e-05	927
bin	2.64152e-05	896
bin	2.64864e-05	976
bin	2.65576e-05	977
bin	2.66288e-05	954
bin	2.67e-05	942
bin	2.67712e-05	893
bin	2.68424e-05	869
bin	2.69136e-05	860
bin	2.69848e-05	916
bin	2.7056e-05	832
bin	2.71272e-05	815
bin	2.71984e-05	845
bin	2.72696e-05	832
bin	2.73408e-05	804
bin	2.7412e-05	826
bin	2.74832e-05	916
bin	2.75544e-05	884
bin	2.76256e-05	824
bin	2.76968e-05	864
bin	2.7768e-05	872
bin	2.78392e-05	886
bin	2.79104e-05	929
bin	2.79816e-05	877
bin	2.80528e-05	895
bin	2.8124e-05	850
bin	2.81952e-05	925
bin	2.82664e-05	892
bin	2.83376e-05	881
bin	2.84088e-05	898
bin	2.848e-05	911
bin	2.85512e-05	941
bin	2.86224e-05	971
bin	2.86936e-05	980
bin	2.87648e-05	892
bin	2.8836e-05	936
bin	2.89072e-05	916
bin	2.89784e-05	869
bin	2.90496e-05	906
bin	2.91208e-05	864
bin	2.9192e-05	867
bin	2.92632e-05	876
bin	2.93344e-05	833
bin	2.94056e-05	896
bin	2.94768e-05	895
bin	2.9548e-05	907
bin	2.96192e-05	928
bin	2.96904e-05	897
bin	2.97616e-05	887
bin	2.98328e-05	832
bin	2.9904e-05	849
bin	2.99752e-05	828
bin	3.00464e-05	859
bin	3.01176e-05	805
bin	3.01888e-05	789
bin	3.026e-05	719
bin	3.03312e-05	711
bin	3.04024e-05	789
bin	3.04736e-05	791
bin	3.05448e-05	709
bin	3.0616e-05	735
bin	3.06872e-05	719
bin	3.07584e-05	769
bin	3.08296e-05	776
bin	3.09008e-05	767
bin	3.0972e-05	759
bin	3.10432e-05	723
bin	3.11144e-05	768
bin	3.11856e-05	747
bin	3.12568e-05	838
bin	3.1328e-05	875
bin	3.13992e-05	817
bin	3.14704e-05	812
bin	3.15416e-05	822
bin	3.16128e-05	800
bin	3.1684e-05	767
bin	3.17552e-05	823
bin	3.18264e-05	785
bin	3.18976e-05	842
bin	3.19688e-05	811
bin	3.204e-05	862
bin	3.21112e-05	850
bin	3.21824e-05	818
bin	3.22536e-05	847
bin	3.23248e-05	823
bin	3.2396e-05	801
bin	3.24672e-05	800
bin	3.25384e-05	820
bin	3.26096e-05	831
bin	3.26808e-05	845
bin	3.2752e-05	846
bin	3.28232e-05	873
bin	3.28944e-05	888
bin	3.29656e-05	839
bin	3.30368e-05	802
bin	3.3108e-05	763
bin	3.31792e-05	713
bin	3.32504e-05	777
bin	3.33216e-05	758
bin	3.33928e-05	822
bin	3.3464e-05	753
bin	3.35352e-05	726
bin	3.36064e-05	740
bin	3.36776e-05	721
bin	3.37488e-05	753
bin	3.382e-05	735
bin	3.38912e-05	729
bin	3.39624e-05	727
bin	3.40336e-05	743
bin	3.41048e-05	755
bin	3.4176e-05	792
bin	3.42472e-05	769
bin	3.43184e-05	712
bin	3.43896e-05	733
bin	3.44608e-05	711
bin	3.4532e-05	721
bin	3.46032e-05	697
bin	3.46744e-05	692
bin	3.47456e-05	683
bin	3.48168e-05	686
bin	3.4888e-05	723
bin	3.49592e-05	665
bin	3.50304e-05	701
bin	3.51016e-05	651
bin	3.51728e-05	636
bin	3.5244e-05	650
bin	3.53152e-05	663
bin	3.53864e-05	740
bin	3.54576e-05	765
bin	3.55288e-05	666
bin	3.56e-05	4136034
statistic Torus3d_bub.timer 	"Life Times"
field count 6291456
field mean 0.003228878105938
field stddev 0.0029016525273524
field sum 20314.344532872
field sqrsum 118.56399747822
field min 1.463665514e-06
field max 0.011821393314866
bin	-INF	0
bin	0	0
bin	8.544e-07	73
bin	1.7088e-06	494
bin	2.5632e-06	1210
bin	3.4176e-06	2393
bin	4.272e-06	3706
bin	5.1264e-06	4682
bin	5.9808e-06	5316
bin	6.8352e-06	5698
bin	7.6896e-06	6167
bin	8.544e-06	6759
bin	9.3984e-06	7254
bin	1.02528e-05	8084
bin	1.11072e-05	8850
bin	1.19616e-05	9315
bin	1.2816e-05	9652
bin	1.36704e-05	9634
bin	1.45248e-05	9628
bin	1.53792e-05	9434
bin	1.62336e-05	9249
bin	1.7088e-05	9164
bin	1.79424e-05	8994
bin	1.87968e-05	8852
bin	1.96512e-05	8919
bin	2.05056e-05	9029
bin	2.136e-05	9004
bin	2.22144e-05	9221
bin	2.30688e-05	9351
bin	2.39232e-05	9553
bin	2.47776e-05	9589
bin	2.5632e-05	9717
bin	2.64864e-05	9831
bin	2.73408e-05	10287
bin	2.81952e-05	10296
bin	2.90496e-05	10453
bin	2.9904e-05	10687
bin	3.07584e-05	10862
bin	3.16128e-05	10959
bin	3.24672e-05	10935
bin	3.33216e-05	11118
bin	3.4176e-05	11316
bin	3.50304e-05	11223
bin	3.58848e-05	11333
bin	3.67392e-05	11695
bin	3.75936e-05	11672
bin	3.8448e-05	11938
bin	3.93024e-05	11848
bin	4.01568e-05	12075
bin	4.10112e-05	12156
bin	4.18656e-05	11965
bin	4.272e-05	12175
bin	4.35744e-05	12144
bin	4.44288e-05	12288
bin	4.52832e-05	12441
bin	4.61376e-05	12501
bin	4.6992e-05	12386
bin	4.78464e-05	12487
bin	4.87008e-05	12290
bin	4.95552e-05	12395
bin	5.04096e-05	12347
bin	5.1264e-05	12473
bin	5.21184e-05	12558
bin	5.29728e-05	12699
bin	5.38272e-05	12520
bin	5.46816e-05	12636
bin	5.5536e-05	12896
bin	5.63904e-05	12772
bin	5.72448e-05	12960
bin	5.80992e-05	12978
bin	5.89536e-05	12943
bin	5.9808e-05	13045
bin	6.06624e-05	13095
bin	6.15168e-05	13296
bin	6.23712e-05	13167
bin	6.32256e-05	13003
bin	6.408e-05	13364
bin	6.49344e-05	13659
bin	6.57888e-05	13470
bin	6.66432e-05	13427
bin	6.74976e-05	13676
bin	6.8352e-05	13780
bin	6.92064e-05	13924
bin	7.00608e-05	13797
bin	7.09152e-05	13821
bin	7.17696e-05	13879
bin	7.2624e-05	13727
bin	7.34784e-05	13936
bin	7.43328e-05	13724
bin	7.51872e-05	13860
bin	7.60416e-05	13844
bin	7.6896e-05	13817
bin	7.77504e-05	14078
bin	7.86048e-05	14005
bin	7.94592e-05	14071
bin	8.03136e-05	13909
bin	8.1168e-05	13940
bin	8.20224e-05	13657
bin	8.28768e-05	13716
bin	8.37312e-05	13715
bin	8.45856e-05	13689
bin	8.544e-05	13403
bin	8.62944e-05	13329
bin	8.71488e-05	13369
bin	8.80032e-05	13264
bin	8.88576e-05	13013
bin	8.9712e-05	13125
bin	9.05664e-05	12919
bin	9.14208e-05	12935
bin	9.22752e-05	12889
bin	9.31296e-05	12576
bin	9.3984e-05	12491
bin	9.48384e-05	12161
bin	9.56928e-05	12195
bin	9.65472e-05	12046
bin	9.74016e-05	11820
bin	9.8256e-05	11814
bin	9.91104e-05	11574
bin	9.99648e-05	11186
bin	0.0001008192	11079
bin	0.0001016736	10823
bin	0.000102528	10772
bin	0.0001033824	10563
bin	0.0001042368	10360
bin	0.0001050912	10120
bin	0.0001059456	9989
bin	0.0001068	9765
bin	0.0001076544	9562
bin	0.0001085088	9454
bin	0.0001093632	9220
bin	0.0001102176	9110
bin	0.000111072	9052
bin	0.0001119264	8810
bin	0.0001127808	8784
bin	0.0001136352	8625
bin	0.0001144896	8590
bin	0.000115344	8515
bin	0.0001161984	8246
bin	0.0001170528	8352
bin	0.0001179072	8274
bin	0.0001187616	7976
bin	0.000119616	7790
bin	0.0001204704	7784
bin	0.0001213248	7833
bin	0.0001221792	7690
bin	0.0001230336	7448
bin	0.000123888	6801
bin	0.0001247424	6263
bin	0.0001255968	5921
bin	0.0001264512	5661
bin	0.0001273056	5308
bin	0.00012816	4832
bin	0.0001290144	4576
bin	0.0001298688	4177
bin	0.0001307232	3944
bin	0.0001315776	3698
bin	0.000132432	3538
bin	0.0001332864	3265
bin	0.0001341408	3059
bin	0.0001349952	2845
bin	0.0001358496	2652
bin	0.000136704	2549
bin	0.0001375584	2468
bin	0.0001384128	2387
bin	0.0001392672	2235
bin	0.0001401216	2178
bin	0.000140976	2098
bin	0.0001418304	2017
bin	0.0001426848	1950
bin	0.0001435392	1935
bin	0.0001443936	1892
bin	0.000145248	1902
bin	0.0001461024	1889
bin	0.0001469568	1716
bin	0.0001478112	1693
bin	0.0001486656	1671
bin	0.00014952	1597
bin	0.0001503744	1623
bin	0.0001512288	1596
bin	0.0001520832	1587
bin	0.0001529376	1609
bin	0.000153792	1572
bin	0.0001546464	1633
bin	0.0001555008	1590
bin	0.0001563552	1501
bin	0.0001572096	1539
bin	0.000158064	1483
bin	0.0001589184	1442
bin	0.0001597728	1456
bin	0.0001606272	1423
bin	0.0001614816	1387
bin	0.000162336	1526
bin	0.0001631904	1447
bin	0.0001640448	1433
bin	0.0001648992	1398
bin	0.0001657536	1442
bin	0.000166608	1492
bin	0.0001674624	1444
bin	0.0001683168	1406
bin	0.0001691712	1438
bin	0.0001700256	1478
bin	0.00017088	1414
bin	0.0001717344	1419
bin	0.0001725888	1488
bin	0.0001734432	1474
bin	0.0001742976	1451
bin	0.000175152	1393
bin	0.0001760064	1392
bin	0.0001768608	1382
bin	0.0001777152	1496
bin	0.0001785696	1491
bin	0.000179424	1516
bin	0.0001802784	1504
bin	0.0001811328	1501
bin	0.0001819872	1450
bin	0.0001828416	1485
bin	0.000183696	1397
bin	0.0001845504	1490
bin	0.0001854048	1470
bin	0.0001862592	1375
bin	0.0001871136	1442
bin	0.000187968	1470
bin	0.0001888224	1508
bin	0.0001896768	1432
bin	0.0001905312	1456
bin	0.0001913856	1442
bin	0.00019224	1477
bin	0.0001930944	1487
bin	0.0001939488	1458
bin	0.0001948032	1495
bin	0.0001956576	1471
bin	0.000196512	1493
bin	0.0001973664	1519
bin	0.0001982208	1467
bin	0.0001990752	1542
bin	0.0001999296	1442
bin	0.000200784	1470
bin	0.0002016384	1487
bin	0.0002024928	1492
bin	0.0002033472	1482
bin	0.0002042016	1505
bin	0.000205056	1535
bin	0.0002059104	1545
bin	0.0002067648	1529
bin	0.0002076192	1556
bin	0.0002084736	1538
bin	0.000209328	1569
bin	0.0002101824	1570
bin	0.0002110368	1588
bin	0.0002118912	1543
bin	0.0002127456	1615
bin	0.0002136	1600
bin	0.0002144544	1552
bin	0.0002153088	1632
bin	0.0002161632	1658
bin	0.0002170176	1653
bin	0.000217872	1635
bin	0.0002187264	1570
bin	0.0002195808	1612
bin	0.0002204352	1559
bin	0.0002212896	1540
bin	0.000222144	1491
bin	0.0002229984	1523
bin	0.0002238528	1615
bin	0.0002247072	1541
bin	0.0002255616	1601
bin	0.000226416	1618
bin	0.0002272704	1623
bin	0.0002281248	1597
bin	0.0002289792	1602
bin	0.0002298336	1625
bin	0.000230688	1599
bin	0.0002315424	1592
bin	0.0002323968	1569
bin	0.0002332512	1514
bin	0.0002341056	1649
bin	0.00023496	1634
bin	0.0002358144	1641
bin	0.0002366688	1663
bin	0.0002375232	1603
bin	0.0002383776	1620
bin	0.000239232	1659
bin	0.0002400864	1679
bin	0.0002409408	1695
bin	0.0002417952	1679
bin	0.0002426496	1693
bin	0.000243504	1731
bin	0.0002443584	1733
bin	0.0002452128	1795
bin	0.0002460672	1764
bin	0.0002469216	1671
bin	0.000247776	1701
bin	0.0002486304	1707
bin	0.0002494848	1584
bin	0.0002503392	1560
bin	0.0002511936	1506
bin	0.000252048	1414
bin	0.0002529024	1466
bin	0.0002537568	1356
bin	0.0002546112	1310
bin	0.0002554656	1305
bin	0.00025632	1320
bin	0.0002571744	1186
bin	0.0002580288	1209
bin	0.0002588832	1159
bin	0.0002597376	1098
bin	0.000260592	1027
bin	0.0002614464	1016
bin	0.0002623008	1019
bin	0.0002631552	952
bin	0.0002640096	958
bin	0.000264864	939
bin	0.0002657184	904
bin	0.0002665728	862
bin	0.0002674272	891
bin	0.0002682816	836
bin	0.000269136	845
bin	0.0002699904	848
bin	0.0002708448	814
bin	0.0002716992	756
bin	0.0002725536	799
bin	0.000273408	831
bin	0.0002742624	845
bin	0.0002751168	818
bin	0.0002759712	790
bin	0.0002768256	782
bin	0.00027768	783
bin	0.0002785344	745
bin	0.0002793888	821
bin	0.0002802432	832
bin	0.0002810976	802
bin	0.000281952	794
bin	0.0002828064	783
bin	0.0002836608	808
bin	0.0002845152	769
bin	0.0002853696	778
bin	0.000286224	803
bin	0.0002870784	840
bin	0.0002879328	851
bin	0.0002887872	834
bin	0.0002896416	841
bin	0.000290496	823
bin	0.0002913504	845
bin	0.0002922048	823
bin	0.0002930592	836
bin	0.0002939136	846
bin	0.000294768	889
bin	0.0002956224	865
bin	0.0002964768	887
bin	0.0002973312	853
bin	0.0002981856	855
bin	0.00029904	885
bin	0.0002998944	899
bin	0.0003007488	889
bin	0.0003016032	823
bin	0.0003024576	867
bin	0.000303312	848
bin	0.0003041664	844
bin	0.0003050208	853
bin	0.0003058752	866
bin	0.0003067296	843
bin	0.000307584	821
bin	0.0003084384	875
bin	0.0003092928	834
bin	0.0003101472	902
bin	0.0003110016	924
bin	0.000311856	890
bin	0.0003127104	880
bin	0.0003135648	878
bin	0.0003144192	893
bin	0.0003152736	919
bin	0.000316128	876
bin	0.0003169824	924
bin	0.0003178368	896
bin	0.0003186912	893
bin	0.0003195456	877
bin	0.0003204	860
bin	0.0003212544	850
bin	0.0003221088	887
bin	0.0003229632	938
bin	0.0003238176	900
bin	0.000324672	947
bin	0.0003255264	939
bin	0.0003263808	916
bin	0.0003272352	963
bin	0.0003280896	952
bin	0.000328944	970
bin	0.0003297984	949
bin	0.0003306528	936
bin	0.0003315072	1019
bin	0.0003323616	927
bin	0.000333216	964
bin	0.0003340704	911
bin	0.0003349248	954
bin	0.0003357792	959
bin	0.0003366336	984
bin	0.000337488	957
bin	0.0003383424	956
bin	0.0003391968	959
bin	0.0003400512	939
bin	0.0003409056	960
bin	0.00034176	924
bin	0.0003426144	932
bin	0.0003434688	970
bin	0.0003443232	969
bin	0.0003451776	998
bin	0.000346032	958
bin	0.0003468864	948
bin	0.0003477408	964
bin	0.0003485952	1006
bin	0.0003494496	995
bin	0.000350304	954
bin	0.0003511584	986
bin	0.0003520128	1019
bin	0.0003528672	1015
bin	0.0003537216	1002
bin	0.000354576	985
bin	0.0003554304	959
bin	0.0003562848	974
bin	0.0003571392	965
bin	0.0003579936	1023
bin	0.000358848	1000
bin	0.0003597024	1002
bin	0.0003605568	982
bin	0.0003614112	1025
bin	0.0003622656	946
bin	0.00036312	943
bin	0.0003639744	1045
bin	0.0003648288	968
bin	0.0003656832	959
bin	0.0003665376	983
bin	0.000367392	991
bin	0.0003682464	971
bin	0.0003691008	1016
bin	0.0003699552	1001
bin	0.0003708096	976
bin	0.000371664	965
bin	0.0003725184	1004
bin	0.0003733728	948
bin	0.0003742272	894
bin	0.0003750816	900
bin	0.000375936	903
bin	0.0003767904	823
bin	0.0003776448	780
bin	0.0003784992	862
bin	0.0003793536	750
bin	0.000380208	751
bin	0.0003810624	730
bin	0.0003819168	750
bin	0.0003827712	694
bin	0.0003836256	684
bin	0.00038448	694
bin	0.0003853344	653
bin	0.0003861888	664
bin	0.0003870432	652
bin	0.0003878976	635
bin	0.000388752	626
bin	0.0003896064	649
bin	0.0003904608	621
bin	0.0003913152	648
bin	0.0003921696	644
bin	0.000393024	615
bin	0.0003938784	581
bin	0.0003947328	622
bin	0.0003955872	629
bin	0.0003964416	602
bin	0.000397296	602
bin	0.0003981504	564
bin	0.0003990048	614
bin	0.0003998592	588
bin	0.0004007136	596
bin	0.000401568	611
bin	0.0004024224	614
bin	0.0004032768	617
bin	0.0004041312	606
bin	0.0004049856	588
bin	0.00040584	637
bin	0.0004066944	638
bin	0.0004075488	648
bin	0.0004084032	643
bin	0.0004092576	606
bin	0.000410112	667
bin	0.0004109664	598
bin	0.0004118208	630
bin	0.0004126752	609
bin	0.0004135296	586
bin	0.000414384	583
bin	0.0004152384	604
bin	0.0004160928	607
bin	0.0004169472	631
bin	0.0004178016	597
bin	0.000418656	619
bin	0.0004195104	626
bin	0.0004203648	631
bin	0.0004212192	690
bin	0.0004220736	652
bin	0.000422928	650
bin	0.0004237824	662
bin	0.0004246368	691
bin	0.0004254912	682
bin	0.0004263456	736
bin	0.0004272	4271572
