version 2
run Bitcomplement-30-20120709-20:39:29-24910
attr alg 2
attr buf 8
attr configname Bitcomplement
attr datetime 20120709-20:39:29
attr delta 0.4
attr experiment Bitcomplement
attr ext false
attr inifile altro.ini
attr iterationvars "$buf=8, $ext=false, $ofedge=1, $delta=0.4, $alg=2"
attr iterationvars2 "$buf=8, $ext=false, $ofedge=1, $delta=0.4, $alg=2, $repetition=0"
attr measurement "$buf=8, $ext=false, $ofedge=1, $delta=0.4, $alg=2"
attr network Torus3d_bub
attr ofedge 1
attr processid 24910
attr repetition 0
attr replication #0
attr resultdir altro-results
attr runnumber 30
attr seedset 30

scalar . 	alg 	2
scalar . 	buf 	8
scalar . 	delta 	0.4
scalar . 	ofedge 	1
scalar Torus3d_bub.timer 	#endTime 	0.004841554332853
scalar Torus3d_bub.timer 	#totalHops 	118344014
scalar Torus3d_bub.timer 	#totalPacks 	6291456
scalar Torus3d_bub.timer 	#totalDerouted 	4430941
scalar Torus3d_bub.timer 	#totalOutFlanked 	0
scalar Torus3d_bub.timer 	#totalCQRed 	4430941
scalar Torus3d_bub.timer 	#LB 	0.000786432
scalar Torus3d_bub.timer 	#ratio 	0.16243378591531
statistic Torus3d_bub.timer 	"Hop Times"
field count 6291456
field mean 3.1767479976241e-05
field stddev 7.1733270609683e-05
field sum 199.8637025014
field sqrsum 0.038722867792321
field min 4.14412666e-07
field max 0.001579320333333
bin	-INF	0
bin	0	0
bin	7.12e-08	0
bin	1.424e-07	0
bin	2.136e-07	0
bin	2.848e-07	0
bin	3.56e-07	20
bin	4.272e-07	442
bin	4.984e-07	2764
bin	5.696e-07	5578
bin	6.408e-07	11790
bin	7.12e-07	22472
bin	7.832e-07	34682
bin	8.544e-07	45326
bin	9.256e-07	52974
bin	9.968e-07	57181
bin	1.068e-06	60432
bin	1.1392e-06	62397
bin	1.2104e-06	64918
bin	1.2816e-06	66530
bin	1.3528e-06	68096
bin	1.424e-06	68980
bin	1.4952e-06	70386
bin	1.5664e-06	71390
bin	1.6376e-06	73323
bin	1.7088e-06	74468
bin	1.78e-06	75822
bin	1.8512e-06	77829
bin	1.9224e-06	78905
bin	1.9936e-06	79952
bin	2.0648e-06	81331
bin	2.136e-06	81038
bin	2.2072e-06	81519
bin	2.2784e-06	81072
bin	2.3496e-06	79802
bin	2.4208e-06	78993
bin	2.492e-06	77111
bin	2.5632e-06	76404
bin	2.6344e-06	75227
bin	2.7056e-06	73402
bin	2.7768e-06	71995
bin	2.848e-06	71218
bin	2.9192e-06	69024
bin	2.9904e-06	67010
bin	3.0616e-06	65308
bin	3.1328e-06	63728
bin	3.204e-06	62115
bin	3.2752e-06	59809
bin	3.3464e-06	57775
bin	3.4176e-06	55920
bin	3.4888e-06	53796
bin	3.56e-06	52136
bin	3.6312e-06	50231
bin	3.7024e-06	48182
bin	3.7736e-06	46190
bin	3.8448e-06	44185
bin	3.916e-06	42565
bin	3.9872e-06	40951
bin	4.0584e-06	39534
bin	4.1296e-06	38288
bin	4.2008e-06	36525
bin	4.272e-06	34493
bin	4.3432e-06	33281
bin	4.4144e-06	32179
bin	4.4856e-06	30694
bin	4.5568e-06	29666
bin	4.628e-06	29204
bin	4.6992e-06	28069
bin	4.7704e-06	27135
bin	4.8416e-06	25689
bin	4.9128e-06	24189
bin	4.984e-06	23587
bin	5.0552e-06	22877
bin	5.1264e-06	22189
bin	5.1976e-06	21644
bin	5.2688e-06	21270
bin	5.34e-06	20945
bin	5.4112e-06	20235
bin	5.4824e-06	19851
bin	5.5536e-06	19057
bin	5.6248e-06	18349
bin	5.696e-06	17763
bin	5.7672e-06	17128
bin	5.8384e-06	16908
bin	5.9096e-06	16339
bin	5.9808e-06	15840
bin	6.052e-06	15536
bin	6.1232e-06	15224
bin	6.1944e-06	14607
bin	6.2656e-06	14381
bin	6.3368e-06	14110
bin	6.408e-06	13954
bin	6.4792e-06	13540
bin	6.5504e-06	12810
bin	6.6216e-06	12666
bin	6.6928e-06	12002
bin	6.764e-06	11951
bin	6.8352e-06	11718
bin	6.9064e-06	11616
bin	6.9776e-06	11143
bin	7.0488e-06	10991
bin	7.12e-06	10589
bin	7.1912e-06	10339
bin	7.2624e-06	10241
bin	7.3336e-06	9970
bin	7.4048e-06	9915
bin	7.476e-06	9759
bin	7.5472e-06	9571
bin	7.6184e-06	9345
bin	7.6896e-06	9319
bin	7.7608e-06	8943
bin	7.832e-06	9151
bin	7.9032e-06	8886
bin	7.9744e-06	8541
bin	8.0456e-06	8221
bin	8.1168e-06	8003
bin	8.188e-06	7912
bin	8.2592e-06	7653
bin	8.3304e-06	7430
bin	8.4016e-06	7456
bin	8.4728e-06	7399
bin	8.544e-06	7317
bin	8.6152e-06	7418
bin	8.6864e-06	7231
bin	8.7576e-06	6919
bin	8.8288e-06	6772
bin	8.9e-06	6680
bin	8.9712e-06	6430
bin	9.0424e-06	6194
bin	9.1136e-06	6271
bin	9.1848e-06	6273
bin	9.256e-06	6251
bin	9.3272e-06	6068
bin	9.3984e-06	6086
bin	9.4696e-06	5835
bin	9.5408e-06	5835
bin	9.612e-06	5685
bin	9.6832e-06	5537
bin	9.7544e-06	5352
bin	9.8256e-06	5469
bin	9.8968e-06	5407
bin	9.968e-06	5366
bin	1.00392e-05	5270
bin	1.01104e-05	5060
bin	1.01816e-05	5026
bin	1.02528e-05	5053
bin	1.0324e-05	4864
bin	1.03952e-05	4844
bin	1.04664e-05	4763
bin	1.05376e-05	4610
bin	1.06088e-05	4538
bin	1.068e-05	4513
bin	1.07512e-05	4456
bin	1.08224e-05	4426
bin	1.08936e-05	4510
bin	1.09648e-05	4441
bin	1.1036e-05	4317
bin	1.11072e-05	4274
bin	1.11784e-05	4412
bin	1.12496e-05	4338
bin	1.13208e-05	4203
bin	1.1392e-05	4101
bin	1.14632e-05	4115
bin	1.15344e-05	4036
bin	1.16056e-05	3945
bin	1.16768e-05	3881
bin	1.1748e-05	3797
bin	1.18192e-05	3834
bin	1.18904e-05	3807
bin	1.19616e-05	3774
bin	1.20328e-05	3835
bin	1.2104e-05	3803
bin	1.21752e-05	3714
bin	1.22464e-05	3670
bin	1.23176e-05	3623
bin	1.23888e-05	3594
bin	1.246e-05	3453
bin	1.25312e-05	3431
bin	1.26024e-05	3396
bin	1.26736e-05	3382
bin	1.27448e-05	3310
bin	1.2816e-05	3333
bin	1.28872e-05	3386
bin	1.29584e-05	3270
bin	1.30296e-05	3160
bin	1.31008e-05	3198
bin	1.3172e-05	3111
bin	1.32432e-05	3172
bin	1.33144e-05	3104
bin	1.33856e-05	3066
bin	1.34568e-05	2961
bin	1.3528e-05	3045
bin	1.35992e-05	2974
bin	1.36704e-05	3082
bin	1.37416e-05	3156
bin	1.38128e-05	3072
bin	1.3884e-05	2993
bin	1.39552e-05	2827
bin	1.40264e-05	2863
bin	1.40976e-05	2903
bin	1.41688e-05	2914
bin	1.424e-05	2893
bin	1.43112e-05	2814
bin	1.43824e-05	2891
bin	1.44536e-05	2862
bin	1.45248e-05	2816
bin	1.4596e-05	2719
bin	1.46672e-05	2705
bin	1.47384e-05	2618
bin	1.48096e-05	2704
bin	1.48808e-05	2695
bin	1.4952e-05	2663
bin	1.50232e-05	2588
bin	1.50944e-05	2530
bin	1.51656e-05	2562
bin	1.52368e-05	2448
bin	1.5308e-05	2462
bin	1.53792e-05	2496
bin	1.54504e-05	2400
bin	1.55216e-05	2458
bin	1.55928e-05	2336
bin	1.5664e-05	2487
bin	1.57352e-05	2400
bin	1.58064e-05	2305
bin	1.58776e-05	2378
bin	1.59488e-05	2345
bin	1.602e-05	2251
bin	1.60912e-05	2287
bin	1.61624e-05	2360
bin	1.62336e-05	2265
bin	1.63048e-05	2260
bin	1.6376e-05	2229
bin	1.64472e-05	2279
bin	1.65184e-05	2334
bin	1.65896e-05	2329
bin	1.66608e-05	2221
bin	1.6732e-05	2241
bin	1.68032e-05	2230
bin	1.68744e-05	2252
bin	1.69456e-05	2228
bin	1.70168e-05	2131
bin	1.7088e-05	2146
bin	1.71592e-05	2177
bin	1.72304e-05	2193
bin	1.73016e-05	2156
bin	1.73728e-05	2115
bin	1.7444e-05	2144
bin	1.75152e-05	2155
bin	1.75864e-05	2113
bin	1.76576e-05	2089
bin	1.77288e-05	1975
bin	1.78e-05	1978
bin	1.78712e-05	1965
bin	1.79424e-05	1921
bin	1.80136e-05	2007
bin	1.80848e-05	1961
bin	1.8156e-05	1948
bin	1.82272e-05	1968
bin	1.82984e-05	1941
bin	1.83696e-05	1896
bin	1.84408e-05	1996
bin	1.8512e-05	1995
bin	1.85832e-05	1981
bin	1.86544e-05	1889
bin	1.87256e-05	1869
bin	1.87968e-05	1908
bin	1.8868e-05	1888
bin	1.89392e-05	1887
bin	1.90104e-05	1963
bin	1.90816e-05	1865
bin	1.91528e-05	1868
bin	1.9224e-05	1917
bin	1.92952e-05	1869
bin	1.93664e-05	1775
bin	1.94376e-05	1771
bin	1.95088e-05	1925
bin	1.958e-05	1835
bin	1.96512e-05	1826
bin	1.97224e-05	1719
bin	1.97936e-05	1800
bin	1.98648e-05	1816
bin	1.9936e-05	1759
bin	2.00072e-05	1733
bin	2.00784e-05	1792
bin	2.01496e-05	1731
bin	2.02208e-05	1770
bin	2.0292e-05	1763
bin	2.03632e-05	1700
bin	2.04344e-05	1691
bin	2.05056e-05	1740
bin	2.05768e-05	1709
bin	2.0648e-05	1673
bin	2.07192e-05	1749
bin	2.07904e-05	1847
bin	2.08616e-05	1903
bin	2.09328e-05	1797
bin	2.1004e-05	1782
bin	2.10752e-05	1758
bin	2.11464e-05	1748
bin	2.12176e-05	1715
bin	2.12888e-05	1607
bin	2.136e-05	1623
bin	2.14312e-05	1595
bin	2.15024e-05	1602
bin	2.15736e-05	1566
bin	2.16448e-05	1675
bin	2.1716e-05	1586
bin	2.17872e-05	1667
bin	2.18584e-05	1671
bin	2.19296e-05	1655
bin	2.20008e-05	1655
bin	2.2072e-05	1621
bin	2.21432e-05	1505
bin	2.22144e-05	1489
bin	2.22856e-05	1469
bin	2.23568e-05	1543
bin	2.2428e-05	1502
bin	2.24992e-05	1531
bin	2.25704e-05	1526
bin	2.26416e-05	1495
bin	2.27128e-05	1491
bin	2.2784e-05	1568
bin	2.28552e-05	1546
bin	2.29264e-05	1527
bin	2.29976e-05	1546
bin	2.30688e-05	1575
bin	2.314e-05	1586
bin	2.32112e-05	1574
bin	2.32824e-05	1531
bin	2.33536e-05	1535
bin	2.34248e-05	1470
bin	2.3496e-05	1492
bin	2.35672e-05	1487
bin	2.36384e-05	1520
bin	2.37096e-05	1516
bin	2.37808e-05	1481
bin	2.3852e-05	1434
bin	2.39232e-05	1511
bin	2.39944e-05	1414
bin	2.40656e-05	1407
bin	2.41368e-05	1452
bin	2.4208e-05	1447
bin	2.42792e-05	1411
bin	2.43504e-05	1394
bin	2.44216e-05	1400
bin	2.44928e-05	1433
bin	2.4564e-05	1425
bin	2.46352e-05	1425
bin	2.47064e-05	1463
bin	2.47776e-05	1416
bin	2.48488e-05	1420
bin	2.492e-05	1388
bin	2.49912e-05	1419
bin	2.50624e-05	1525
bin	2.51336e-05	1405
bin	2.52048e-05	1413
bin	2.5276e-05	1425
bin	2.53472e-05	1407
bin	2.54184e-05	1458
bin	2.54896e-05	1372
bin	2.55608e-05	1360
bin	2.5632e-05	1358
bin	2.57032e-05	1403
bin	2.57744e-05	1428
bin	2.58456e-05	1348
bin	2.59168e-05	1249
bin	2.5988e-05	1333
bin	2.60592e-05	1279
bin	2.61304e-05	1218
bin	2.62016e-05	1294
bin	2.62728e-05	1253
bin	2.6344e-05	1294
bin	2.64152e-05	1264
bin	2.64864e-05	1304
bin	2.65576e-05	1348
bin	2.66288e-05	1356
bin	2.67e-05	1404
bin	2.67712e-05	1414
bin	2.68424e-05	1240
bin	2.69136e-05	1307
bin	2.69848e-05	1339
bin	2.7056e-05	1358
bin	2.71272e-05	1369
bin	2.71984e-05	1325
bin	2.72696e-05	1258
bin	2.73408e-05	1314
bin	2.7412e-05	1254
bin	2.74832e-05	1243
bin	2.75544e-05	1214
bin	2.76256e-05	1259
bin	2.76968e-05	1297
bin	2.7768e-05	1265
bin	2.78392e-05	1302
bin	2.79104e-05	1233
bin	2.79816e-05	1272
bin	2.80528e-05	1273
bin	2.8124e-05	1252
bin	2.81952e-05	1253
bin	2.82664e-05	1265
bin	2.83376e-05	1241
bin	2.84088e-05	1166
bin	2.848e-05	1204
bin	2.85512e-05	1208
bin	2.86224e-05	1193
bin	2.86936e-05	1252
bin	2.87648e-05	1245
bin	2.8836e-05	1249
bin	2.89072e-05	1226
bin	2.89784e-05	1270
bin	2.90496e-05	1306
bin	2.91208e-05	1280
bin	2.9192e-05	1254
bin	2.92632e-05	1285
bin	2.93344e-05	1240
bin	2.94056e-05	1203
bin	2.94768e-05	1162
bin	2.9548e-05	1155
bin	2.96192e-05	1200
bin	2.96904e-05	1281
bin	2.97616e-05	1244
bin	2.98328e-05	1222
bin	2.9904e-05	1240
bin	2.99752e-05	1239
bin	3.00464e-05	1133
bin	3.01176e-05	1120
bin	3.01888e-05	1176
bin	3.026e-05	1137
bin	3.03312e-05	1111
bin	3.04024e-05	1211
bin	3.04736e-05	1178
bin	3.05448e-05	1137
bin	3.0616e-05	1132
bin	3.06872e-05	1170
bin	3.07584e-05	1158
bin	3.08296e-05	1156
bin	3.09008e-05	1150
bin	3.0972e-05	1164
bin	3.10432e-05	1142
bin	3.11144e-05	1100
bin	3.11856e-05	1173
bin	3.12568e-05	1107
bin	3.1328e-05	1164
bin	3.13992e-05	1155
bin	3.14704e-05	1219
bin	3.15416e-05	1225
bin	3.16128e-05	1146
bin	3.1684e-05	1056
bin	3.17552e-05	1117
bin	3.18264e-05	1116
bin	3.18976e-05	1106
bin	3.19688e-05	1188
bin	3.204e-05	1161
bin	3.21112e-05	1108
bin	3.21824e-05	1110
bin	3.22536e-05	1115
bin	3.23248e-05	1106
bin	3.2396e-05	1142
bin	3.24672e-05	1105
bin	3.25384e-05	1087
bin	3.26096e-05	1084
bin	3.26808e-05	1119
bin	3.2752e-05	1164
bin	3.28232e-05	1122
bin	3.28944e-05	1200
bin	3.29656e-05	1160
bin	3.30368e-05	1058
bin	3.3108e-05	1138
bin	3.31792e-05	1132
bin	3.32504e-05	1082
bin	3.33216e-05	1070
bin	3.33928e-05	1124
bin	3.3464e-05	1077
bin	3.35352e-05	1024
bin	3.36064e-05	1026
bin	3.36776e-05	1081
bin	3.37488e-05	1062
bin	3.382e-05	1057
bin	3.38912e-05	1032
bin	3.39624e-05	1082
bin	3.40336e-05	1061
bin	3.41048e-05	1021
bin	3.4176e-05	1049
bin	3.42472e-05	1044
bin	3.43184e-05	1073
bin	3.43896e-05	1053
bin	3.44608e-05	1071
bin	3.4532e-05	1025
bin	3.46032e-05	1014
bin	3.46744e-05	1034
bin	3.47456e-05	1115
bin	3.48168e-05	1038
bin	3.4888e-05	1035
bin	3.49592e-05	1024
bin	3.50304e-05	1018
bin	3.51016e-05	1022
bin	3.51728e-05	1015
bin	3.5244e-05	966
bin	3.53152e-05	1059
bin	3.53864e-05	1005
bin	3.54576e-05	1027
bin	3.55288e-05	1018
bin	3.56e-05	1358077
statistic Torus3d_bub.timer 	"Life Times"
field count 6291456
field mean 0.00049236628738127
field stddev 0.00083969301008399
field sum 3097.7008329426
field sqrsum 5.9612099252116
field min 1.250333333e-06
field max 0.004802781333141
bin	-INF	0
bin	0	0
bin	8.544e-07	67
bin	1.7088e-06	129
bin	2.5632e-06	357
bin	3.4176e-06	664
bin	4.272e-06	1018
bin	5.1264e-06	1462
bin	5.9808e-06	2458
bin	6.8352e-06	3519
bin	7.6896e-06	5108
bin	8.544e-06	6841
bin	9.3984e-06	9011
bin	1.02528e-05	11188
bin	1.11072e-05	13396
bin	1.19616e-05	16372
bin	1.2816e-05	18862
bin	1.36704e-05	21228
bin	1.45248e-05	23613
bin	1.53792e-05	25543
bin	1.62336e-05	27059
bin	1.7088e-05	28046
bin	1.79424e-05	29632
bin	1.87968e-05	30659
bin	1.96512e-05	30715
bin	2.05056e-05	30813
bin	2.136e-05	30898
bin	2.22144e-05	30949
bin	2.30688e-05	31544
bin	2.39232e-05	31915
bin	2.47776e-05	32887
bin	2.5632e-05	33814
bin	2.64864e-05	34637
bin	2.73408e-05	36105
bin	2.81952e-05	37507
bin	2.90496e-05	38667
bin	2.9904e-05	40210
bin	3.07584e-05	41269
bin	3.16128e-05	42336
bin	3.24672e-05	43320
bin	3.33216e-05	44337
bin	3.4176e-05	45457
bin	3.50304e-05	45670
bin	3.58848e-05	46387
bin	3.67392e-05	47563
bin	3.75936e-05	47584
bin	3.8448e-05	48361
bin	3.93024e-05	48531
bin	4.01568e-05	49240
bin	4.10112e-05	49308
bin	4.18656e-05	49881
bin	4.272e-05	50357
bin	4.35744e-05	50510
bin	4.44288e-05	51003
bin	4.52832e-05	51557
bin	4.61376e-05	52259
bin	4.6992e-05	52159
bin	4.78464e-05	52938
bin	4.87008e-05	53417
bin	4.95552e-05	53711
bin	5.04096e-05	53958
bin	5.1264e-05	54018
bin	5.21184e-05	54453
bin	5.29728e-05	54566
bin	5.38272e-05	54536
bin	5.46816e-05	54707
bin	5.5536e-05	54741
bin	5.63904e-05	55178
bin	5.72448e-05	54869
bin	5.80992e-05	54404
bin	5.89536e-05	54693
bin	5.9808e-05	54633
bin	6.06624e-05	54386
bin	6.15168e-05	53518
bin	6.23712e-05	50365
bin	6.32256e-05	46954
bin	6.408e-05	44294
bin	6.49344e-05	42611
bin	6.57888e-05	41562
bin	6.66432e-05	39978
bin	6.74976e-05	38486
bin	6.8352e-05	37259
bin	6.92064e-05	36963
bin	7.00608e-05	35530
bin	7.09152e-05	34479
bin	7.17696e-05	34042
bin	7.2624e-05	32538
bin	7.34784e-05	31256
bin	7.43328e-05	30150
bin	7.51872e-05	28379
bin	7.60416e-05	26741
bin	7.6896e-05	25543
bin	7.77504e-05	24361
bin	7.86048e-05	23627
bin	7.94592e-05	22414
bin	8.03136e-05	22059
bin	8.1168e-05	21483
bin	8.20224e-05	20876
bin	8.28768e-05	20327
bin	8.37312e-05	19913
bin	8.45856e-05	19437
bin	8.544e-05	18828
bin	8.62944e-05	18050
bin	8.71488e-05	17459
bin	8.80032e-05	16808
bin	8.88576e-05	16194
bin	8.9712e-05	15670
bin	9.05664e-05	15014
bin	9.14208e-05	14363
bin	9.22752e-05	13954
bin	9.31296e-05	13129
bin	9.3984e-05	12933
bin	9.48384e-05	12161
bin	9.56928e-05	11930
bin	9.65472e-05	11562
bin	9.74016e-05	11254
bin	9.8256e-05	10745
bin	9.91104e-05	10703
bin	9.99648e-05	10344
bin	0.0001008192	10114
bin	0.0001016736	9937
bin	0.000102528	9735
bin	0.0001033824	9652
bin	0.0001042368	9689
bin	0.0001050912	9405
bin	0.0001059456	9210
bin	0.0001068	9087
bin	0.0001076544	8821
bin	0.0001085088	9096
bin	0.0001093632	8904
bin	0.0001102176	8783
bin	0.000111072	8700
bin	0.0001119264	8526
bin	0.0001127808	8590
bin	0.0001136352	8648
bin	0.0001144896	8425
bin	0.000115344	8654
bin	0.0001161984	8543
bin	0.0001170528	8467
bin	0.0001179072	8309
bin	0.0001187616	8266
bin	0.000119616	8296
bin	0.0001204704	8260
bin	0.0001213248	8204
bin	0.0001221792	8233
bin	0.0001230336	8371
bin	0.000123888	8057
bin	0.0001247424	7894
bin	0.0001255968	7768
bin	0.0001264512	7750
bin	0.0001273056	7691
bin	0.00012816	7784
bin	0.0001290144	7635
bin	0.0001298688	7866
bin	0.0001307232	7698
bin	0.0001315776	7602
bin	0.000132432	7585
bin	0.0001332864	7245
bin	0.0001341408	7449
bin	0.0001349952	7210
bin	0.0001358496	7118
bin	0.000136704	6920
bin	0.0001375584	6612
bin	0.0001384128	6391
bin	0.0001392672	6179
bin	0.0001401216	6288
bin	0.000140976	5984
bin	0.0001418304	5788
bin	0.0001426848	5795
bin	0.0001435392	5623
bin	0.0001443936	5639
bin	0.000145248	5494
bin	0.0001461024	5396
bin	0.0001469568	5350
bin	0.0001478112	5097
bin	0.0001486656	5152
bin	0.00014952	4995
bin	0.0001503744	4830
bin	0.0001512288	4653
bin	0.0001520832	4579
bin	0.0001529376	4452
bin	0.000153792	4100
bin	0.0001546464	4094
bin	0.0001555008	4014
bin	0.0001563552	4142
bin	0.0001572096	3855
bin	0.000158064	3908
bin	0.0001589184	3908
bin	0.0001597728	3710
bin	0.0001606272	3667
bin	0.0001614816	3590
bin	0.000162336	3519
bin	0.0001631904	3508
bin	0.0001640448	3505
bin	0.0001648992	3437
bin	0.0001657536	3425
bin	0.000166608	3483
bin	0.0001674624	3342
bin	0.0001683168	3317
bin	0.0001691712	3325
bin	0.0001700256	3347
bin	0.00017088	3355
bin	0.0001717344	3306
bin	0.0001725888	3294
bin	0.0001734432	3393
bin	0.0001742976	3254
bin	0.000175152	3276
bin	0.0001760064	3210
bin	0.0001768608	3233
bin	0.0001777152	3301
bin	0.0001785696	3342
bin	0.000179424	3358
bin	0.0001802784	3359
bin	0.0001811328	3306
bin	0.0001819872	3399
bin	0.0001828416	3367
bin	0.000183696	3292
bin	0.0001845504	3398
bin	0.0001854048	3366
bin	0.0001862592	3337
bin	0.0001871136	3268
bin	0.000187968	3233
bin	0.0001888224	3209
bin	0.0001896768	3307
bin	0.0001905312	3373
bin	0.0001913856	3212
bin	0.00019224	3262
bin	0.0001930944	3187
bin	0.0001939488	3276
bin	0.0001948032	3367
bin	0.0001956576	3109
bin	0.000196512	3141
bin	0.0001973664	3096
bin	0.0001982208	3097
bin	0.0001990752	3019
bin	0.0001999296	2854
bin	0.000200784	2837
bin	0.0002016384	2763
bin	0.0002024928	2759
bin	0.0002033472	2649
bin	0.0002042016	2641
bin	0.000205056	2644
bin	0.0002059104	2642
bin	0.0002067648	2544
bin	0.0002076192	2606
bin	0.0002084736	2444
bin	0.000209328	2449
bin	0.0002101824	2393
bin	0.0002110368	2370
bin	0.0002118912	2390
bin	0.0002127456	2323
bin	0.0002136	2227
bin	0.0002144544	2191
bin	0.0002153088	2314
bin	0.0002161632	2144
bin	0.0002170176	2080
bin	0.000217872	2139
bin	0.0002187264	2073
bin	0.0002195808	2184
bin	0.0002204352	2095
bin	0.0002212896	1950
bin	0.000222144	1937
bin	0.0002229984	1961
bin	0.0002238528	1847
bin	0.0002247072	1915
bin	0.0002255616	1929
bin	0.000226416	1920
bin	0.0002272704	1945
bin	0.0002281248	1907
bin	0.0002289792	1868
bin	0.0002298336	1909
bin	0.000230688	1912
bin	0.0002315424	1922
bin	0.0002323968	1845
bin	0.0002332512	1852
bin	0.0002341056	1842
bin	0.00023496	1834
bin	0.0002358144	1868
bin	0.0002366688	1828
bin	0.0002375232	1874
bin	0.0002383776	1848
bin	0.000239232	1883
bin	0.0002400864	1924
bin	0.0002409408	1912
bin	0.0002417952	1928
bin	0.0002426496	1887
bin	0.000243504	1909
bin	0.0002443584	2012
bin	0.0002452128	1879
bin	0.0002460672	1894
bin	0.0002469216	1951
bin	0.000247776	1971
bin	0.0002486304	1927
bin	0.0002494848	1928
bin	0.0002503392	1982
bin	0.0002511936	1883
bin	0.000252048	1917
bin	0.0002529024	1922
bin	0.0002537568	1987
bin	0.0002546112	1989
bin	0.0002554656	1934
bin	0.00025632	1844
bin	0.0002571744	1825
bin	0.0002580288	1895
bin	0.0002588832	1900
bin	0.0002597376	1831
bin	0.000260592	1830
bin	0.0002614464	1812
bin	0.0002623008	1763
bin	0.0002631552	1647
bin	0.0002640096	1599
bin	0.000264864	1660
bin	0.0002657184	1616
bin	0.0002665728	1559
bin	0.0002674272	1571
bin	0.0002682816	1515
bin	0.000269136	1565
bin	0.0002699904	1533
bin	0.0002708448	1488
bin	0.0002716992	1588
bin	0.0002725536	1400
bin	0.000273408	1444
bin	0.0002742624	1379
bin	0.0002751168	1480
bin	0.0002759712	1444
bin	0.0002768256	1448
bin	0.00027768	1347
bin	0.0002785344	1361
bin	0.0002793888	1366
bin	0.0002802432	1402
bin	0.0002810976	1340
bin	0.000281952	1398
bin	0.0002828064	1363
bin	0.0002836608	1310
bin	0.0002845152	1371
bin	0.0002853696	1326
bin	0.000286224	1279
bin	0.0002870784	1314
bin	0.0002879328	1364
bin	0.0002887872	1290
bin	0.0002896416	1255
bin	0.000290496	1251
bin	0.0002913504	1284
bin	0.0002922048	1252
bin	0.0002930592	1294
bin	0.0002939136	1255
bin	0.000294768	1281
bin	0.0002956224	1220
bin	0.0002964768	1284
bin	0.0002973312	1323
bin	0.0002981856	1338
bin	0.00029904	1364
bin	0.0002998944	1307
bin	0.0003007488	1286
bin	0.0003016032	1285
bin	0.0003024576	1370
bin	0.000303312	1323
bin	0.0003041664	1375
bin	0.0003050208	1366
bin	0.0003058752	1353
bin	0.0003067296	1387
bin	0.000307584	1393
bin	0.0003084384	1398
bin	0.0003092928	1307
bin	0.0003101472	1330
bin	0.0003110016	1372
bin	0.000311856	1414
bin	0.0003127104	1392
bin	0.0003135648	1397
bin	0.0003144192	1389
bin	0.0003152736	1409
bin	0.000316128	1443
bin	0.0003169824	1368
bin	0.0003178368	1363
bin	0.0003186912	1354
bin	0.0003195456	1351
bin	0.0003204	1328
bin	0.0003212544	1270
bin	0.0003221088	1273
bin	0.0003229632	1246
bin	0.0003238176	1241
bin	0.000324672	1217
bin	0.0003255264	1211
bin	0.0003263808	1193
bin	0.0003272352	1238
bin	0.0003280896	1273
bin	0.000328944	1242
bin	0.0003297984	1172
bin	0.0003306528	1168
bin	0.0003315072	1150
bin	0.0003323616	1219
bin	0.000333216	1146
bin	0.0003340704	1193
bin	0.0003349248	1094
bin	0.0003357792	1107
bin	0.0003366336	1126
bin	0.000337488	1039
bin	0.0003383424	1086
bin	0.0003391968	1045
bin	0.0003400512	1036
bin	0.0003409056	1034
bin	0.00034176	1018
bin	0.0003426144	1023
bin	0.0003434688	1045
bin	0.0003443232	993
bin	0.0003451776	1035
bin	0.000346032	1020
bin	0.0003468864	1065
bin	0.0003477408	1056
bin	0.0003485952	1052
bin	0.0003494496	1045
bin	0.000350304	1016
bin	0.0003511584	1001
bin	0.0003520128	1038
bin	0.0003528672	1049
bin	0.0003537216	1024
bin	0.000354576	1051
bin	0.0003554304	1039
bin	0.0003562848	1070
bin	0.0003571392	1073
bin	0.0003579936	1049
bin	0.000358848	1059
bin	0.0003597024	1096
bin	0.0003605568	1055
bin	0.0003614112	1082
bin	0.0003622656	1025
bin	0.00036312	984
bin	0.0003639744	1096
bin	0.0003648288	1076
bin	0.0003656832	1036
bin	0.0003665376	997
bin	0.000367392	1131
bin	0.0003682464	1036
bin	0.0003691008	1008
bin	0.0003699552	1042
bin	0.0003708096	1043
bin	0.000371664	1013
bin	0.0003725184	1025
bin	0.0003733728	1049
bin	0.0003742272	1039
bin	0.0003750816	1032
bin	0.000375936	1011
bin	0.0003767904	1033
bin	0.0003776448	1037
bin	0.0003784992	1039
bin	0.0003793536	1089
bin	0.000380208	1053
bin	0.0003810624	1034
bin	0.0003819168	1061
bin	0.0003827712	1009
bin	0.0003836256	1000
bin	0.00038448	1014
bin	0.0003853344	1019
bin	0.0003861888	1037
bin	0.0003870432	976
bin	0.0003878976	1046
bin	0.000388752	1048
bin	0.0003896064	1061
bin	0.0003904608	971
bin	0.0003913152	1011
bin	0.0003921696	995
bin	0.000393024	923
bin	0.0003938784	984
bin	0.0003947328	1018
bin	0.0003955872	962
bin	0.0003964416	999
bin	0.000397296	981
bin	0.0003981504	949
bin	0.0003990048	927
bin	0.0003998592	919
bin	0.0004007136	908
bin	0.000401568	945
bin	0.0004024224	901
bin	0.0004032768	908
bin	0.0004041312	938
bin	0.0004049856	961
bin	0.00040584	907
bin	0.0004066944	879
bin	0.0004075488	901
bin	0.0004084032	897
bin	0.0004092576	863
bin	0.000410112	839
bin	0.0004109664	882
bin	0.0004118208	874
bin	0.0004126752	838
bin	0.0004135296	843
bin	0.000414384	765
bin	0.0004152384	845
bin	0.0004160928	840
bin	0.0004169472	898
bin	0.0004178016	860
bin	0.000418656	855
bin	0.0004195104	941
bin	0.0004203648	808
bin	0.0004212192	897
bin	0.0004220736	889
bin	0.000422928	898
bin	0.0004237824	889
bin	0.0004246368	885
bin	0.0004254912	886
bin	0.0004263456	854
bin	0.0004272	1568808
