version 2
run Bitcomplement-40-20120709-21:32:56-24929
attr alg 0
attr buf 8
attr configname Bitcomplement
attr datetime 20120709-21:32:56
attr delta 0.4
attr experiment Bitcomplement
attr ext false
attr inifile altro.ini
attr iterationvars "$buf=8, $ext=false, $ofedge=2, $delta=0.4, $alg=0"
attr iterationvars2 "$buf=8, $ext=false, $ofedge=2, $delta=0.4, $alg=0, $repetition=0"
attr measurement "$buf=8, $ext=false, $ofedge=2, $delta=0.4, $alg=0"
attr network Torus3d_bub
attr ofedge 2
attr processid 24929
attr repetition 0
attr replication #0
attr resultdir altro-results
attr runnumber 40
attr seedset 40

scalar . 	alg 	0
scalar . 	buf 	8
scalar . 	delta 	0.4
scalar . 	ofedge 	2
scalar Torus3d_bub.timer 	#endTime 	0.004288188326635
scalar Torus3d_bub.timer 	#totalHops 	75497472
scalar Torus3d_bub.timer 	#totalPacks 	6291456
scalar Torus3d_bub.timer 	#totalDerouted 	0
scalar Torus3d_bub.timer 	#totalOutFlanked 	0
scalar Torus3d_bub.timer 	#totalCQRed 	0
scalar Torus3d_bub.timer 	#LB 	0.000786432
scalar Torus3d_bub.timer 	#ratio 	0.18339493046872
statistic Torus3d_bub.timer 	"Hop Times"
field count 6291456
field mean 6.2136322138482e-05
field stddev 0.00015565231650463
field sum 390.92793673608
field sqrsum 0.17671795388465
field min 3.99618932e-07
field max 0.001405077
bin	-INF	0
bin	0	0
bin	7.12e-08	0
bin	1.424e-07	0
bin	2.136e-07	0
bin	2.848e-07	0
bin	3.56e-07	57
bin	4.272e-07	5522
bin	4.984e-07	16956
bin	5.696e-07	31950
bin	6.408e-07	44304
bin	7.12e-07	54002
bin	7.832e-07	67780
bin	8.544e-07	80397
bin	9.256e-07	91091
bin	9.968e-07	97401
bin	1.068e-06	101581
bin	1.1392e-06	103492
bin	1.2104e-06	101092
bin	1.2816e-06	95909
bin	1.3528e-06	90820
bin	1.424e-06	85646
bin	1.4952e-06	79265
bin	1.5664e-06	74651
bin	1.6376e-06	69012
bin	1.7088e-06	64231
bin	1.78e-06	61396
bin	1.8512e-06	61471
bin	1.9224e-06	64010
bin	1.9936e-06	65719
bin	2.0648e-06	69554
bin	2.136e-06	71950
bin	2.2072e-06	74204
bin	2.2784e-06	74661
bin	2.3496e-06	74254
bin	2.4208e-06	73604
bin	2.492e-06	71871
bin	2.5632e-06	68733
bin	2.6344e-06	67058
bin	2.7056e-06	64823
bin	2.7768e-06	63357
bin	2.848e-06	61490
bin	2.9192e-06	60484
bin	2.9904e-06	58476
bin	3.0616e-06	57810
bin	3.1328e-06	57524
bin	3.204e-06	57722
bin	3.2752e-06	57839
bin	3.3464e-06	57998
bin	3.4176e-06	56481
bin	3.4888e-06	55899
bin	3.56e-06	55212
bin	3.6312e-06	54440
bin	3.7024e-06	54103
bin	3.7736e-06	53523
bin	3.8448e-06	53966
bin	3.916e-06	54704
bin	3.9872e-06	54090
bin	4.0584e-06	54695
bin	4.1296e-06	54363
bin	4.2008e-06	52442
bin	4.272e-06	51568
bin	4.3432e-06	49780
bin	4.4144e-06	48441
bin	4.4856e-06	47591
bin	4.5568e-06	45960
bin	4.628e-06	43966
bin	4.6992e-06	42396
bin	4.7704e-06	40601
bin	4.8416e-06	38024
bin	4.9128e-06	36463
bin	4.984e-06	34315
bin	5.0552e-06	32827
bin	5.1264e-06	32007
bin	5.1976e-06	30873
bin	5.2688e-06	29106
bin	5.34e-06	27840
bin	5.4112e-06	26109
bin	5.4824e-06	24878
bin	5.5536e-06	23679
bin	5.6248e-06	22278
bin	5.696e-06	21189
bin	5.7672e-06	20096
bin	5.8384e-06	19315
bin	5.9096e-06	18597
bin	5.9808e-06	18246
bin	6.052e-06	17529
bin	6.1232e-06	16910
bin	6.1944e-06	16305
bin	6.2656e-06	15653
bin	6.3368e-06	14685
bin	6.408e-06	13899
bin	6.4792e-06	12926
bin	6.5504e-06	11901
bin	6.6216e-06	11488
bin	6.6928e-06	10987
bin	6.764e-06	10446
bin	6.8352e-06	9957
bin	6.9064e-06	9701
bin	6.9776e-06	9165
bin	7.0488e-06	8821
bin	7.12e-06	8592
bin	7.1912e-06	8484
bin	7.2624e-06	8064
bin	7.3336e-06	7815
bin	7.4048e-06	7699
bin	7.476e-06	7020
bin	7.5472e-06	6110
bin	7.6184e-06	5573
bin	7.6896e-06	5152
bin	7.7608e-06	4281
bin	7.832e-06	3646
bin	7.9032e-06	3163
bin	7.9744e-06	2580
bin	8.0456e-06	2318
bin	8.1168e-06	2042
bin	8.188e-06	2048
bin	8.2592e-06	2101
bin	8.3304e-06	2017
bin	8.4016e-06	2044
bin	8.4728e-06	2154
bin	8.544e-06	2089
bin	8.6152e-06	2113
bin	8.6864e-06	2278
bin	8.7576e-06	2182
bin	8.8288e-06	2195
bin	8.9e-06	2251
bin	8.9712e-06	2333
bin	9.0424e-06	2152
bin	9.1136e-06	2170
bin	9.1848e-06	2036
bin	9.256e-06	1927
bin	9.3272e-06	1815
bin	9.3984e-06	1765
bin	9.4696e-06	1651
bin	9.5408e-06	1580
bin	9.612e-06	1448
bin	9.6832e-06	1407
bin	9.7544e-06	1351
bin	9.8256e-06	1358
bin	9.8968e-06	1470
bin	9.968e-06	1440
bin	1.00392e-05	1407
bin	1.01104e-05	1473
bin	1.01816e-05	1384
bin	1.02528e-05	1416
bin	1.0324e-05	1507
bin	1.03952e-05	1493
bin	1.04664e-05	1527
bin	1.05376e-05	1526
bin	1.06088e-05	1613
bin	1.068e-05	1611
bin	1.07512e-05	1608
bin	1.08224e-05	1667
bin	1.08936e-05	1623
bin	1.09648e-05	1534
bin	1.1036e-05	1582
bin	1.11072e-05	1627
bin	1.11784e-05	1561
bin	1.12496e-05	1586
bin	1.13208e-05	1548
bin	1.1392e-05	1657
bin	1.14632e-05	1476
bin	1.15344e-05	1544
bin	1.16056e-05	1542
bin	1.16768e-05	1477
bin	1.1748e-05	1425
bin	1.18192e-05	1317
bin	1.18904e-05	1198
bin	1.19616e-05	1107
bin	1.20328e-05	1050
bin	1.2104e-05	1013
bin	1.21752e-05	909
bin	1.22464e-05	893
bin	1.23176e-05	859
bin	1.23888e-05	849
bin	1.246e-05	820
bin	1.25312e-05	977
bin	1.26024e-05	1200
bin	1.26736e-05	1161
bin	1.27448e-05	1166
bin	1.2816e-05	1238
bin	1.28872e-05	1406
bin	1.29584e-05	1449
bin	1.30296e-05	1636
bin	1.31008e-05	1764
bin	1.3172e-05	1857
bin	1.32432e-05	1857
bin	1.33144e-05	2010
bin	1.33856e-05	2061
bin	1.34568e-05	2087
bin	1.3528e-05	2153
bin	1.35992e-05	2360
bin	1.36704e-05	2324
bin	1.37416e-05	2409
bin	1.38128e-05	2435
bin	1.3884e-05	2611
bin	1.39552e-05	2497
bin	1.40264e-05	2806
bin	1.40976e-05	2840
bin	1.41688e-05	2758
bin	1.424e-05	2815
bin	1.43112e-05	2443
bin	1.43824e-05	2309
bin	1.44536e-05	2117
bin	1.45248e-05	1864
bin	1.4596e-05	1696
bin	1.46672e-05	1331
bin	1.47384e-05	1145
bin	1.48096e-05	901
bin	1.48808e-05	815
bin	1.4952e-05	734
bin	1.50232e-05	693
bin	1.50944e-05	781
bin	1.51656e-05	671
bin	1.52368e-05	666
bin	1.5308e-05	601
bin	1.53792e-05	607
bin	1.54504e-05	527
bin	1.55216e-05	505
bin	1.55928e-05	456
bin	1.5664e-05	478
bin	1.57352e-05	471
bin	1.58064e-05	499
bin	1.58776e-05	541
bin	1.59488e-05	475
bin	1.602e-05	547
bin	1.60912e-05	514
bin	1.61624e-05	569
bin	1.62336e-05	514
bin	1.63048e-05	520
bin	1.6376e-05	585
bin	1.64472e-05	533
bin	1.65184e-05	565
bin	1.65896e-05	595
bin	1.66608e-05	582
bin	1.6732e-05	557
bin	1.68032e-05	596
bin	1.68744e-05	526
bin	1.69456e-05	662
bin	1.70168e-05	584
bin	1.7088e-05	624
bin	1.71592e-05	730
bin	1.72304e-05	677
bin	1.73016e-05	685
bin	1.73728e-05	640
bin	1.7444e-05	698
bin	1.75152e-05	642
bin	1.75864e-05	622
bin	1.76576e-05	639
bin	1.77288e-05	643
bin	1.78e-05	505
bin	1.78712e-05	505
bin	1.79424e-05	424
bin	1.80136e-05	414
bin	1.80848e-05	396
bin	1.8156e-05	328
bin	1.82272e-05	363
bin	1.82984e-05	293
bin	1.83696e-05	292
bin	1.84408e-05	282
bin	1.8512e-05	241
bin	1.85832e-05	228
bin	1.86544e-05	211
bin	1.87256e-05	225
bin	1.87968e-05	200
bin	1.8868e-05	193
bin	1.89392e-05	190
bin	1.90104e-05	224
bin	1.90816e-05	227
bin	1.91528e-05	286
bin	1.9224e-05	337
bin	1.92952e-05	451
bin	1.93664e-05	431
bin	1.94376e-05	521
bin	1.95088e-05	596
bin	1.958e-05	622
bin	1.96512e-05	749
bin	1.97224e-05	816
bin	1.97936e-05	898
bin	1.98648e-05	938
bin	1.9936e-05	997
bin	2.00072e-05	1074
bin	2.00784e-05	1118
bin	2.01496e-05	1119
bin	2.02208e-05	1205
bin	2.0292e-05	1298
bin	2.03632e-05	1249
bin	2.04344e-05	1292
bin	2.05056e-05	1348
bin	2.05768e-05	1407
bin	2.0648e-05	1378
bin	2.07192e-05	1495
bin	2.07904e-05	1562
bin	2.08616e-05	1650
bin	2.09328e-05	1746
bin	2.1004e-05	1674
bin	2.10752e-05	1727
bin	2.11464e-05	1505
bin	2.12176e-05	1491
bin	2.12888e-05	1342
bin	2.136e-05	1265
bin	2.14312e-05	1179
bin	2.15024e-05	1030
bin	2.15736e-05	986
bin	2.16448e-05	835
bin	2.1716e-05	768
bin	2.17872e-05	723
bin	2.18584e-05	745
bin	2.19296e-05	737
bin	2.20008e-05	717
bin	2.2072e-05	692
bin	2.21432e-05	654
bin	2.22144e-05	635
bin	2.22856e-05	562
bin	2.23568e-05	538
bin	2.2428e-05	466
bin	2.24992e-05	483
bin	2.25704e-05	446
bin	2.26416e-05	476
bin	2.27128e-05	421
bin	2.2784e-05	465
bin	2.28552e-05	461
bin	2.29264e-05	446
bin	2.29976e-05	420
bin	2.30688e-05	370
bin	2.314e-05	379
bin	2.32112e-05	371
bin	2.32824e-05	313
bin	2.33536e-05	281
bin	2.34248e-05	292
bin	2.3496e-05	234
bin	2.35672e-05	229
bin	2.36384e-05	214
bin	2.37096e-05	196
bin	2.37808e-05	173
bin	2.3852e-05	188
bin	2.39232e-05	163
bin	2.39944e-05	147
bin	2.40656e-05	169
bin	2.41368e-05	163
bin	2.4208e-05	138
bin	2.42792e-05	120
bin	2.43504e-05	125
bin	2.44216e-05	129
bin	2.44928e-05	146
bin	2.4564e-05	129
bin	2.46352e-05	122
bin	2.47064e-05	123
bin	2.47776e-05	101
bin	2.48488e-05	133
bin	2.492e-05	121
bin	2.49912e-05	144
bin	2.50624e-05	126
bin	2.51336e-05	121
bin	2.52048e-05	117
bin	2.5276e-05	139
bin	2.53472e-05	147
bin	2.54184e-05	158
bin	2.54896e-05	163
bin	2.55608e-05	159
bin	2.5632e-05	146
bin	2.57032e-05	158
bin	2.57744e-05	149
bin	2.58456e-05	153
bin	2.59168e-05	185
bin	2.5988e-05	192
bin	2.60592e-05	190
bin	2.61304e-05	228
bin	2.62016e-05	271
bin	2.62728e-05	308
bin	2.6344e-05	376
bin	2.64152e-05	385
bin	2.64864e-05	475
bin	2.65576e-05	508
bin	2.66288e-05	573
bin	2.67e-05	623
bin	2.67712e-05	686
bin	2.68424e-05	772
bin	2.69136e-05	849
bin	2.69848e-05	908
bin	2.7056e-05	942
bin	2.71272e-05	1015
bin	2.71984e-05	1028
bin	2.72696e-05	1191
bin	2.73408e-05	1094
bin	2.7412e-05	1176
bin	2.74832e-05	1190
bin	2.75544e-05	1269
bin	2.76256e-05	1340
bin	2.76968e-05	1281
bin	2.7768e-05	1356
bin	2.78392e-05	1299
bin	2.79104e-05	1356
bin	2.79816e-05	1256
bin	2.80528e-05	1211
bin	2.8124e-05	1057
bin	2.81952e-05	1056
bin	2.82664e-05	934
bin	2.83376e-05	722
bin	2.84088e-05	657
bin	2.848e-05	596
bin	2.85512e-05	536
bin	2.86224e-05	462
bin	2.86936e-05	446
bin	2.87648e-05	417
bin	2.8836e-05	400
bin	2.89072e-05	376
bin	2.89784e-05	391
bin	2.90496e-05	403
bin	2.91208e-05	357
bin	2.9192e-05	341
bin	2.92632e-05	289
bin	2.93344e-05	266
bin	2.94056e-05	216
bin	2.94768e-05	252
bin	2.9548e-05	224
bin	2.96192e-05	240
bin	2.96904e-05	173
bin	2.97616e-05	176
bin	2.98328e-05	160
bin	2.9904e-05	168
bin	2.99752e-05	153
bin	3.00464e-05	158
bin	3.01176e-05	123
bin	3.01888e-05	140
bin	3.026e-05	123
bin	3.03312e-05	114
bin	3.04024e-05	135
bin	3.04736e-05	121
bin	3.05448e-05	136
bin	3.0616e-05	111
bin	3.06872e-05	125
bin	3.07584e-05	125
bin	3.08296e-05	118
bin	3.09008e-05	117
bin	3.0972e-05	105
bin	3.10432e-05	121
bin	3.11144e-05	116
bin	3.11856e-05	128
bin	3.12568e-05	129
bin	3.1328e-05	125
bin	3.13992e-05	144
bin	3.14704e-05	148
bin	3.15416e-05	153
bin	3.16128e-05	168
bin	3.1684e-05	167
bin	3.17552e-05	157
bin	3.18264e-05	169
bin	3.18976e-05	179
bin	3.19688e-05	193
bin	3.204e-05	167
bin	3.21112e-05	199
bin	3.21824e-05	188
bin	3.22536e-05	192
bin	3.23248e-05	186
bin	3.2396e-05	209
bin	3.24672e-05	191
bin	3.25384e-05	198
bin	3.26096e-05	195
bin	3.26808e-05	187
bin	3.2752e-05	208
bin	3.28232e-05	218
bin	3.28944e-05	227
bin	3.29656e-05	237
bin	3.30368e-05	289
bin	3.3108e-05	312
bin	3.31792e-05	346
bin	3.32504e-05	395
bin	3.33216e-05	386
bin	3.33928e-05	462
bin	3.3464e-05	468
bin	3.35352e-05	544
bin	3.36064e-05	615
bin	3.36776e-05	675
bin	3.37488e-05	761
bin	3.382e-05	782
bin	3.38912e-05	872
bin	3.39624e-05	970
bin	3.40336e-05	1002
bin	3.41048e-05	1038
bin	3.4176e-05	1088
bin	3.42472e-05	1050
bin	3.43184e-05	1076
bin	3.43896e-05	1107
bin	3.44608e-05	1203
bin	3.4532e-05	1219
bin	3.46032e-05	1309
bin	3.46744e-05	1219
bin	3.47456e-05	1137
bin	3.48168e-05	1006
bin	3.4888e-05	914
bin	3.49592e-05	939
bin	3.50304e-05	868
bin	3.51016e-05	719
bin	3.51728e-05	612
bin	3.5244e-05	468
bin	3.53152e-05	461
bin	3.53864e-05	370
bin	3.54576e-05	334
bin	3.55288e-05	280
bin	3.56e-05	1366949
statistic Torus3d_bub.timer 	"Life Times"
field count 6291456
field mean 0.00036646962586778
field stddev 0.00070366179361592
field sum 2305.6275264836
field sqrsum 3.9600929811133
field min 1.250333333e-06
field max 0.004216555
bin	-INF	0
bin	0	0
bin	8.544e-07	64
bin	1.7088e-06	80
bin	2.5632e-06	236
bin	3.4176e-06	1199
bin	4.272e-06	4733
bin	5.1264e-06	6791
bin	5.9808e-06	12967
bin	6.8352e-06	19492
bin	7.6896e-06	26826
bin	8.544e-06	33532
bin	9.3984e-06	41573
bin	1.02528e-05	49643
bin	1.11072e-05	54081
bin	1.19616e-05	57280
bin	1.2816e-05	59505
bin	1.36704e-05	61973
bin	1.45248e-05	64906
bin	1.53792e-05	64860
bin	1.62336e-05	65417
bin	1.7088e-05	65807
bin	1.79424e-05	64397
bin	1.87968e-05	62340
bin	1.96512e-05	59463
bin	2.05056e-05	57256
bin	2.136e-05	56559
bin	2.22144e-05	55413
bin	2.30688e-05	55299
bin	2.39232e-05	56387
bin	2.47776e-05	56575
bin	2.5632e-05	58559
bin	2.64864e-05	60864
bin	2.73408e-05	62244
bin	2.81952e-05	63787
bin	2.90496e-05	67008
bin	2.9904e-05	67548
bin	3.07584e-05	69856
bin	3.16128e-05	70680
bin	3.24672e-05	71679
bin	3.33216e-05	72980
bin	3.4176e-05	74201
bin	3.50304e-05	75080
bin	3.58848e-05	77540
bin	3.67392e-05	77873
bin	3.75936e-05	77642
bin	3.8448e-05	77614
bin	3.93024e-05	78208
bin	4.01568e-05	78781
bin	4.10112e-05	79613
bin	4.18656e-05	81176
bin	4.272e-05	82121
bin	4.35744e-05	82220
bin	4.44288e-05	82624
bin	4.52832e-05	82410
bin	4.61376e-05	79598
bin	4.6992e-05	78975
bin	4.78464e-05	77392
bin	4.87008e-05	75476
bin	4.95552e-05	73408
bin	5.04096e-05	72628
bin	5.1264e-05	70365
bin	5.21184e-05	67816
bin	5.29728e-05	66426
bin	5.38272e-05	64718
bin	5.46816e-05	63499
bin	5.5536e-05	62182
bin	5.63904e-05	59744
bin	5.72448e-05	58016
bin	5.80992e-05	54713
bin	5.89536e-05	52213
bin	5.9808e-05	49899
bin	6.06624e-05	47760
bin	6.15168e-05	45718
bin	6.23712e-05	43134
bin	6.32256e-05	39656
bin	6.408e-05	38075
bin	6.49344e-05	35418
bin	6.57888e-05	33303
bin	6.66432e-05	32172
bin	6.74976e-05	28587
bin	6.8352e-05	25392
bin	6.92064e-05	21790
bin	7.00608e-05	18266
bin	7.09152e-05	15295
bin	7.17696e-05	12181
bin	7.2624e-05	10281
bin	7.34784e-05	8808
bin	7.43328e-05	7377
bin	7.51872e-05	6228
bin	7.60416e-05	5129
bin	7.6896e-05	4556
bin	7.77504e-05	3892
bin	7.86048e-05	3414
bin	7.94592e-05	2870
bin	8.03136e-05	2337
bin	8.1168e-05	2094
bin	8.20224e-05	1771
bin	8.28768e-05	1586
bin	8.37312e-05	1343
bin	8.45856e-05	1222
bin	8.544e-05	1072
bin	8.62944e-05	910
bin	8.71488e-05	771
bin	8.80032e-05	671
bin	8.88576e-05	587
bin	8.9712e-05	503
bin	9.05664e-05	449
bin	9.14208e-05	381
bin	9.22752e-05	379
bin	9.31296e-05	344
bin	9.3984e-05	337
bin	9.48384e-05	381
bin	9.56928e-05	341
bin	9.65472e-05	398
bin	9.74016e-05	478
bin	9.8256e-05	511
bin	9.91104e-05	472
bin	9.99648e-05	465
bin	0.0001008192	511
bin	0.0001016736	481
bin	0.000102528	488
bin	0.0001033824	526
bin	0.0001042368	467
bin	0.0001050912	616
bin	0.0001059456	696
bin	0.0001068	741
bin	0.0001076544	907
bin	0.0001085088	1127
bin	0.0001093632	1269
bin	0.0001102176	1562
bin	0.000111072	1906
bin	0.0001119264	2218
bin	0.0001127808	2806
bin	0.0001136352	3094
bin	0.0001144896	3409
bin	0.000115344	3730
bin	0.0001161984	4166
bin	0.0001170528	4537
bin	0.0001179072	4903
bin	0.0001187616	4997
bin	0.000119616	5220
bin	0.0001204704	5229
bin	0.0001213248	5323
bin	0.0001221792	5706
bin	0.0001230336	5693
bin	0.000123888	5794
bin	0.0001247424	5968
bin	0.0001255968	5869
bin	0.0001264512	6138
bin	0.0001273056	6044
bin	0.00012816	5967
bin	0.0001290144	5474
bin	0.0001298688	4863
bin	0.0001307232	4312
bin	0.0001315776	3711
bin	0.000132432	2988
bin	0.0001332864	2472
bin	0.0001341408	2175
bin	0.0001349952	1968
bin	0.0001358496	1878
bin	0.000136704	1507
bin	0.0001375584	1315
bin	0.0001384128	1206
bin	0.0001392672	975
bin	0.0001401216	800
bin	0.000140976	699
bin	0.0001418304	645
bin	0.0001426848	573
bin	0.0001435392	456
bin	0.0001443936	395
bin	0.000145248	428
bin	0.0001461024	356
bin	0.0001469568	325
bin	0.0001478112	283
bin	0.0001486656	259
bin	0.00014952	232
bin	0.0001503744	203
bin	0.0001512288	194
bin	0.0001520832	221
bin	0.0001529376	223
bin	0.000153792	196
bin	0.0001546464	205
bin	0.0001555008	182
bin	0.0001563552	211
bin	0.0001572096	190
bin	0.000158064	220
bin	0.0001589184	189
bin	0.0001597728	195
bin	0.0001606272	200
bin	0.0001614816	185
bin	0.000162336	192
bin	0.0001631904	166
bin	0.0001640448	182
bin	0.0001648992	177
bin	0.0001657536	181
bin	0.000166608	192
bin	0.0001674624	215
bin	0.0001683168	202
bin	0.0001691712	209
bin	0.0001700256	239
bin	0.00017088	267
bin	0.0001717344	358
bin	0.0001725888	430
bin	0.0001734432	600
bin	0.0001742976	737
bin	0.000175152	841
bin	0.0001760064	1080
bin	0.0001768608	1259
bin	0.0001777152	1465
bin	0.0001785696	1539
bin	0.000179424	1711
bin	0.0001802784	1833
bin	0.0001811328	1883
bin	0.0001819872	2107
bin	0.0001828416	2211
bin	0.000183696	2226
bin	0.0001845504	2473
bin	0.0001854048	2364
bin	0.0001862592	2642
bin	0.0001871136	2750
bin	0.000187968	2907
bin	0.0001888224	3012
bin	0.0001896768	2930
bin	0.0001905312	2646
bin	0.0001913856	2402
bin	0.00019224	2195
bin	0.0001930944	1911
bin	0.0001939488	1727
bin	0.0001948032	1445
bin	0.0001956576	1242
bin	0.000196512	1167
bin	0.0001973664	1079
bin	0.0001982208	965
bin	0.0001990752	803
bin	0.0001999296	814
bin	0.000200784	670
bin	0.0002016384	620
bin	0.0002024928	555
bin	0.0002033472	533
bin	0.0002042016	438
bin	0.000205056	396
bin	0.0002059104	425
bin	0.0002067648	346
bin	0.0002076192	308
bin	0.0002084736	295
bin	0.000209328	317
bin	0.0002101824	235
bin	0.0002110368	239
bin	0.0002118912	221
bin	0.0002127456	198
bin	0.0002136	179
bin	0.0002144544	192
bin	0.0002153088	191
bin	0.0002161632	173
bin	0.0002170176	156
bin	0.000217872	143
bin	0.0002187264	146
bin	0.0002195808	136
bin	0.0002204352	156
bin	0.0002212896	156
bin	0.000222144	136
bin	0.0002229984	128
bin	0.0002238528	130
bin	0.0002247072	175
bin	0.0002255616	143
bin	0.000226416	147
bin	0.0002272704	157
bin	0.0002281248	168
bin	0.0002289792	184
bin	0.0002298336	187
bin	0.000230688	230
bin	0.0002315424	219
bin	0.0002323968	268
bin	0.0002332512	293
bin	0.0002341056	355
bin	0.00023496	409
bin	0.0002358144	550
bin	0.0002366688	633
bin	0.0002375232	709
bin	0.0002383776	860
bin	0.000239232	935
bin	0.0002400864	1090
bin	0.0002409408	1145
bin	0.0002417952	1355
bin	0.0002426496	1472
bin	0.000243504	1514
bin	0.0002443584	1628
bin	0.0002452128	1743
bin	0.0002460672	1721
bin	0.0002469216	1813
bin	0.000247776	1938
bin	0.0002486304	1977
bin	0.0002494848	2072
bin	0.0002503392	1994
bin	0.0002511936	2026
bin	0.000252048	1830
bin	0.0002529024	1709
bin	0.0002537568	1552
bin	0.0002546112	1281
bin	0.0002554656	1075
bin	0.00025632	892
bin	0.0002571744	829
bin	0.0002580288	711
bin	0.0002588832	648
bin	0.0002597376	600
bin	0.000260592	572
bin	0.0002614464	546
bin	0.0002623008	542
bin	0.0002631552	446
bin	0.0002640096	370
bin	0.000264864	299
bin	0.0002657184	326
bin	0.0002665728	286
bin	0.0002674272	267
bin	0.0002682816	223
bin	0.000269136	225
bin	0.0002699904	195
bin	0.0002708448	175
bin	0.0002716992	168
bin	0.0002725536	176
bin	0.000273408	169
bin	0.0002742624	160
bin	0.0002751168	165
bin	0.0002759712	156
bin	0.0002768256	159
bin	0.00027768	163
bin	0.0002785344	143
bin	0.0002793888	179
bin	0.0002802432	173
bin	0.0002810976	180
bin	0.000281952	177
bin	0.0002828064	194
bin	0.0002836608	219
bin	0.0002845152	218
bin	0.0002853696	232
bin	0.000286224	229
bin	0.0002870784	257
bin	0.0002879328	250
bin	0.0002887872	255
bin	0.0002896416	271
bin	0.000290496	263
bin	0.0002913504	294
bin	0.0002922048	249
bin	0.0002930592	273
bin	0.0002939136	271
bin	0.000294768	315
bin	0.0002956224	327
bin	0.0002964768	346
bin	0.0002973312	431
bin	0.0002981856	477
bin	0.00029904	564
bin	0.0002998944	560
bin	0.0003007488	660
bin	0.0003016032	741
bin	0.0003024576	898
bin	0.000303312	947
bin	0.0003041664	1092
bin	0.0003050208	1257
bin	0.0003058752	1376
bin	0.0003067296	1468
bin	0.000307584	1535
bin	0.0003084384	1466
bin	0.0003092928	1557
bin	0.0003101472	1649
bin	0.0003110016	1748
bin	0.000311856	1660
bin	0.0003127104	1534
bin	0.0003135648	1294
bin	0.0003144192	1311
bin	0.0003152736	1153
bin	0.000316128	923
bin	0.0003169824	699
bin	0.0003178368	618
bin	0.0003186912	541
bin	0.0003195456	463
bin	0.0003204	448
bin	0.0003212544	413
bin	0.0003221088	416
bin	0.0003229632	386
bin	0.0003238176	354
bin	0.000324672	320
bin	0.0003255264	354
bin	0.0003263808	316
bin	0.0003272352	292
bin	0.0003280896	295
bin	0.000328944	292
bin	0.0003297984	265
bin	0.0003306528	277
bin	0.0003315072	254
bin	0.0003323616	246
bin	0.000333216	250
bin	0.0003340704	297
bin	0.0003349248	287
bin	0.0003357792	282
bin	0.0003366336	276
bin	0.000337488	266
bin	0.0003383424	272
bin	0.0003391968	278
bin	0.0003400512	294
bin	0.0003409056	277
bin	0.00034176	270
bin	0.0003426144	288
bin	0.0003434688	283
bin	0.0003443232	303
bin	0.0003451776	290
bin	0.000346032	296
bin	0.0003468864	291
bin	0.0003477408	295
bin	0.0003485952	284
bin	0.0003494496	284
bin	0.000350304	287
bin	0.0003511584	298
bin	0.0003520128	325
bin	0.0003528672	297
bin	0.0003537216	339
bin	0.000354576	358
bin	0.0003554304	370
bin	0.0003562848	381
bin	0.0003571392	371
bin	0.0003579936	393
bin	0.000358848	420
bin	0.0003597024	474
bin	0.0003605568	551
bin	0.0003614112	636
bin	0.0003622656	650
bin	0.00036312	709
bin	0.0003639744	808
bin	0.0003648288	935
bin	0.0003656832	1042
bin	0.0003665376	1062
bin	0.000367392	1153
bin	0.0003682464	1254
bin	0.0003691008	1330
bin	0.0003699552	1375
bin	0.0003708096	1558
bin	0.000371664	1560
bin	0.0003725184	1703
bin	0.0003733728	1590
bin	0.0003742272	1458
bin	0.0003750816	1281
bin	0.000375936	1247
bin	0.0003767904	1059
bin	0.0003776448	894
bin	0.0003784992	836
bin	0.0003793536	739
bin	0.000380208	597
bin	0.0003810624	526
bin	0.0003819168	512
bin	0.0003827712	495
bin	0.0003836256	462
bin	0.00038448	508
bin	0.0003853344	486
bin	0.0003861888	423
bin	0.0003870432	412
bin	0.0003878976	436
bin	0.000388752	397
bin	0.0003896064	377
bin	0.0003904608	372
bin	0.0003913152	315
bin	0.0003921696	334
bin	0.000393024	329
bin	0.0003938784	369
bin	0.0003947328	333
bin	0.0003955872	326
bin	0.0003964416	306
bin	0.000397296	297
bin	0.0003981504	328
bin	0.0003990048	303
bin	0.0003998592	327
bin	0.0004007136	342
bin	0.000401568	332
bin	0.0004024224	305
bin	0.0004032768	360
bin	0.0004041312	343
bin	0.0004049856	355
bin	0.00040584	318
bin	0.0004066944	369
bin	0.0004075488	344
bin	0.0004084032	348
bin	0.0004092576	355
bin	0.000410112	371
bin	0.0004109664	352
bin	0.0004118208	333
bin	0.0004126752	318
bin	0.0004135296	282
bin	0.000414384	285
bin	0.0004152384	278
bin	0.0004160928	288
bin	0.0004169472	277
bin	0.0004178016	252
bin	0.000418656	256
bin	0.0004195104	296
bin	0.0004203648	342
bin	0.0004212192	351
bin	0.0004220736	429
bin	0.000422928	470
bin	0.0004237824	616
bin	0.0004246368	673
bin	0.0004254912	789
bin	0.0004263456	862
bin	0.0004272	1306553
