version 2
run Bitcomplement-19-20120709-19:53:16-24889
attr alg 3
attr buf 8
attr configname Bitcomplement
attr datetime 20120709-19:53:16
attr delta 0.4
attr experiment Bitcomplement
attr ext true
attr inifile altro.ini
attr iterationvars "$buf=8, $ext=true, $ofedge=2, $delta=0.4, $alg=3"
attr iterationvars2 "$buf=8, $ext=true, $ofedge=2, $delta=0.4, $alg=3, $repetition=0"
attr measurement "$buf=8, $ext=true, $ofedge=2, $delta=0.4, $alg=3"
attr network Torus3d_bub
attr ofedge 2
attr processid 24889
attr repetition 0
attr replication #0
attr resultdir altro-results
attr runnumber 19
attr seedset 19

scalar . 	alg 	3
scalar . 	buf 	8
scalar . 	delta 	0.4
scalar . 	ofedge 	2
scalar Torus3d_bub.timer 	#endTime 	0.012833444313289
scalar Torus3d_bub.timer 	#totalHops 	110299377
scalar Torus3d_bub.timer 	#totalPacks 	6291456
scalar Torus3d_bub.timer 	#totalDerouted 	4727604
scalar Torus3d_bub.timer 	#totalOutFlanked 	2780781
scalar Torus3d_bub.timer 	#totalCQRed 	1946823
scalar Torus3d_bub.timer 	#LB 	0.000786432
scalar Torus3d_bub.timer 	#ratio 	0.06127988564891
statistic Torus3d_bub.timer 	"Hop Times"
field count 6291456
field mean 0.000323737043104
field stddev 0.00026995552955372
field sum 2036.7773622589
field sqrsum 1.1178762794027
field min 4.40589735e-07
field max 0.003431545105751
bin	-INF	0
bin	0	0
bin	7.12e-08	0
bin	1.424e-07	0
bin	2.136e-07	0
bin	2.848e-07	0
bin	3.56e-07	0
bin	4.272e-07	195
bin	4.984e-07	1488
bin	5.696e-07	2936
bin	6.408e-07	3477
bin	7.12e-07	4304
bin	7.832e-07	5097
bin	8.544e-07	5864
bin	9.256e-07	6607
bin	9.968e-07	7138
bin	1.068e-06	7593
bin	1.1392e-06	7762
bin	1.2104e-06	8069
bin	1.2816e-06	8320
bin	1.3528e-06	8483
bin	1.424e-06	8820
bin	1.4952e-06	8990
bin	1.5664e-06	8812
bin	1.6376e-06	8891
bin	1.7088e-06	8881
bin	1.78e-06	8934
bin	1.8512e-06	9111
bin	1.9224e-06	8878
bin	1.9936e-06	8804
bin	2.0648e-06	8716
bin	2.136e-06	8766
bin	2.2072e-06	8737
bin	2.2784e-06	8741
bin	2.3496e-06	8601
bin	2.4208e-06	8680
bin	2.492e-06	8602
bin	2.5632e-06	8529
bin	2.6344e-06	8474
bin	2.7056e-06	8476
bin	2.7768e-06	8464
bin	2.848e-06	8246
bin	2.9192e-06	8136
bin	2.9904e-06	7984
bin	3.0616e-06	7966
bin	3.1328e-06	7807
bin	3.204e-06	7773
bin	3.2752e-06	7433
bin	3.3464e-06	7297
bin	3.4176e-06	7042
bin	3.4888e-06	7107
bin	3.56e-06	6748
bin	3.6312e-06	6561
bin	3.7024e-06	6366
bin	3.7736e-06	5895
bin	3.8448e-06	5684
bin	3.916e-06	5443
bin	3.9872e-06	5254
bin	4.0584e-06	4956
bin	4.1296e-06	4919
bin	4.2008e-06	4699
bin	4.272e-06	4444
bin	4.3432e-06	4202
bin	4.4144e-06	3953
bin	4.4856e-06	3932
bin	4.5568e-06	3705
bin	4.628e-06	3566
bin	4.6992e-06	3491
bin	4.7704e-06	3230
bin	4.8416e-06	3119
bin	4.9128e-06	3052
bin	4.984e-06	2987
bin	5.0552e-06	2925
bin	5.1264e-06	2752
bin	5.1976e-06	2780
bin	5.2688e-06	2687
bin	5.34e-06	2668
bin	5.4112e-06	2528
bin	5.4824e-06	2537
bin	5.5536e-06	2407
bin	5.6248e-06	2509
bin	5.696e-06	2298
bin	5.7672e-06	2195
bin	5.8384e-06	2325
bin	5.9096e-06	2313
bin	5.9808e-06	2238
bin	6.052e-06	2229
bin	6.1232e-06	2227
bin	6.1944e-06	2193
bin	6.2656e-06	2126
bin	6.3368e-06	2036
bin	6.408e-06	2009
bin	6.4792e-06	1920
bin	6.5504e-06	1850
bin	6.6216e-06	1800
bin	6.6928e-06	1872
bin	6.764e-06	1847
bin	6.8352e-06	1795
bin	6.9064e-06	1852
bin	6.9776e-06	1845
bin	7.0488e-06	1699
bin	7.12e-06	1662
bin	7.1912e-06	1615
bin	7.2624e-06	1688
bin	7.3336e-06	1598
bin	7.4048e-06	1673
bin	7.476e-06	1639
bin	7.5472e-06	1644
bin	7.6184e-06	1648
bin	7.6896e-06	1566
bin	7.7608e-06	1602
bin	7.832e-06	1614
bin	7.9032e-06	1596
bin	7.9744e-06	1651
bin	8.0456e-06	1585
bin	8.1168e-06	1549
bin	8.188e-06	1495
bin	8.2592e-06	1478
bin	8.3304e-06	1476
bin	8.4016e-06	1469
bin	8.4728e-06	1464
bin	8.544e-06	1512
bin	8.6152e-06	1480
bin	8.6864e-06	1402
bin	8.7576e-06	1488
bin	8.8288e-06	1343
bin	8.9e-06	1396
bin	8.9712e-06	1418
bin	9.0424e-06	1377
bin	9.1136e-06	1321
bin	9.1848e-06	1288
bin	9.256e-06	1326
bin	9.3272e-06	1287
bin	9.3984e-06	1310
bin	9.4696e-06	1236
bin	9.5408e-06	1246
bin	9.612e-06	1238
bin	9.6832e-06	1302
bin	9.7544e-06	1288
bin	9.8256e-06	1278
bin	9.8968e-06	1292
bin	9.968e-06	1281
bin	1.00392e-05	1271
bin	1.01104e-05	1282
bin	1.01816e-05	1342
bin	1.02528e-05	1309
bin	1.0324e-05	1267
bin	1.03952e-05	1241
bin	1.04664e-05	1269
bin	1.05376e-05	1218
bin	1.06088e-05	1202
bin	1.068e-05	1230
bin	1.07512e-05	1200
bin	1.08224e-05	1186
bin	1.08936e-05	1167
bin	1.09648e-05	1192
bin	1.1036e-05	1201
bin	1.11072e-05	1203
bin	1.11784e-05	1185
bin	1.12496e-05	1109
bin	1.13208e-05	1082
bin	1.1392e-05	1099
bin	1.14632e-05	1092
bin	1.15344e-05	1080
bin	1.16056e-05	1066
bin	1.16768e-05	1032
bin	1.1748e-05	1069
bin	1.18192e-05	1083
bin	1.18904e-05	1137
bin	1.19616e-05	1150
bin	1.20328e-05	1086
bin	1.2104e-05	1074
bin	1.21752e-05	1060
bin	1.22464e-05	1107
bin	1.23176e-05	1084
bin	1.23888e-05	1159
bin	1.246e-05	1123
bin	1.25312e-05	1030
bin	1.26024e-05	1048
bin	1.26736e-05	1018
bin	1.27448e-05	1113
bin	1.2816e-05	1156
bin	1.28872e-05	1119
bin	1.29584e-05	1117
bin	1.30296e-05	1065
bin	1.31008e-05	1057
bin	1.3172e-05	1053
bin	1.32432e-05	1067
bin	1.33144e-05	1068
bin	1.33856e-05	1096
bin	1.34568e-05	1071
bin	1.3528e-05	1002
bin	1.35992e-05	1002
bin	1.36704e-05	1009
bin	1.37416e-05	990
bin	1.38128e-05	1034
bin	1.3884e-05	1049
bin	1.39552e-05	1059
bin	1.40264e-05	1109
bin	1.40976e-05	1056
bin	1.41688e-05	1050
bin	1.424e-05	1040
bin	1.43112e-05	1009
bin	1.43824e-05	1044
bin	1.44536e-05	991
bin	1.45248e-05	1011
bin	1.4596e-05	974
bin	1.46672e-05	986
bin	1.47384e-05	950
bin	1.48096e-05	914
bin	1.48808e-05	910
bin	1.4952e-05	923
bin	1.50232e-05	964
bin	1.50944e-05	916
bin	1.51656e-05	918
bin	1.52368e-05	970
bin	1.5308e-05	933
bin	1.53792e-05	888
bin	1.54504e-05	856
bin	1.55216e-05	898
bin	1.55928e-05	882
bin	1.5664e-05	861
bin	1.57352e-05	923
bin	1.58064e-05	912
bin	1.58776e-05	916
bin	1.59488e-05	909
bin	1.602e-05	935
bin	1.60912e-05	965
bin	1.61624e-05	919
bin	1.62336e-05	957
bin	1.63048e-05	978
bin	1.6376e-05	889
bin	1.64472e-05	863
bin	1.65184e-05	844
bin	1.65896e-05	876
bin	1.66608e-05	932
bin	1.6732e-05	924
bin	1.68032e-05	876
bin	1.68744e-05	925
bin	1.69456e-05	853
bin	1.70168e-05	880
bin	1.7088e-05	906
bin	1.71592e-05	879
bin	1.72304e-05	838
bin	1.73016e-05	866
bin	1.73728e-05	786
bin	1.7444e-05	838
bin	1.75152e-05	821
bin	1.75864e-05	837
bin	1.76576e-05	833
bin	1.77288e-05	836
bin	1.78e-05	845
bin	1.78712e-05	833
bin	1.79424e-05	780
bin	1.80136e-05	813
bin	1.80848e-05	782
bin	1.8156e-05	823
bin	1.82272e-05	803
bin	1.82984e-05	868
bin	1.83696e-05	864
bin	1.84408e-05	830
bin	1.8512e-05	797
bin	1.85832e-05	783
bin	1.86544e-05	818
bin	1.87256e-05	848
bin	1.87968e-05	780
bin	1.8868e-05	794
bin	1.89392e-05	789
bin	1.90104e-05	798
bin	1.90816e-05	840
bin	1.91528e-05	819
bin	1.9224e-05	838
bin	1.92952e-05	836
bin	1.93664e-05	794
bin	1.94376e-05	792
bin	1.95088e-05	766
bin	1.958e-05	767
bin	1.96512e-05	785
bin	1.97224e-05	771
bin	1.97936e-05	728
bin	1.98648e-05	702
bin	1.9936e-05	678
bin	2.00072e-05	731
bin	2.00784e-05	804
bin	2.01496e-05	790
bin	2.02208e-05	784
bin	2.0292e-05	787
bin	2.03632e-05	783
bin	2.04344e-05	786
bin	2.05056e-05	842
bin	2.05768e-05	896
bin	2.0648e-05	872
bin	2.07192e-05	875
bin	2.07904e-05	864
bin	2.08616e-05	778
bin	2.09328e-05	787
bin	2.1004e-05	781
bin	2.10752e-05	851
bin	2.11464e-05	831
bin	2.12176e-05	893
bin	2.12888e-05	865
bin	2.136e-05	916
bin	2.14312e-05	866
bin	2.15024e-05	866
bin	2.15736e-05	859
bin	2.16448e-05	836
bin	2.1716e-05	811
bin	2.17872e-05	804
bin	2.18584e-05	741
bin	2.19296e-05	683
bin	2.20008e-05	685
bin	2.2072e-05	730
bin	2.21432e-05	700
bin	2.22144e-05	727
bin	2.22856e-05	682
bin	2.23568e-05	646
bin	2.2428e-05	679
bin	2.24992e-05	723
bin	2.25704e-05	696
bin	2.26416e-05	675
bin	2.27128e-05	671
bin	2.2784e-05	690
bin	2.28552e-05	721
bin	2.29264e-05	745
bin	2.29976e-05	773
bin	2.30688e-05	795
bin	2.314e-05	790
bin	2.32112e-05	821
bin	2.32824e-05	794
bin	2.33536e-05	798
bin	2.34248e-05	799
bin	2.3496e-05	768
bin	2.35672e-05	771
bin	2.36384e-05	778
bin	2.37096e-05	813
bin	2.37808e-05	748
bin	2.3852e-05	740
bin	2.39232e-05	749
bin	2.39944e-05	775
bin	2.40656e-05	765
bin	2.41368e-05	751
bin	2.4208e-05	747
bin	2.42792e-05	773
bin	2.43504e-05	735
bin	2.44216e-05	727
bin	2.44928e-05	707
bin	2.4564e-05	704
bin	2.46352e-05	721
bin	2.47064e-05	713
bin	2.47776e-05	683
bin	2.48488e-05	679
bin	2.492e-05	640
bin	2.49912e-05	671
bin	2.50624e-05	684
bin	2.51336e-05	746
bin	2.52048e-05	700
bin	2.5276e-05	731
bin	2.53472e-05	682
bin	2.54184e-05	701
bin	2.54896e-05	690
bin	2.55608e-05	720
bin	2.5632e-05	721
bin	2.57032e-05	674
bin	2.57744e-05	678
bin	2.58456e-05	751
bin	2.59168e-05	759
bin	2.5988e-05	734
bin	2.60592e-05	703
bin	2.61304e-05	750
bin	2.62016e-05	738
bin	2.62728e-05	734
bin	2.6344e-05	720
bin	2.64152e-05	759
bin	2.64864e-05	757
bin	2.65576e-05	797
bin	2.66288e-05	772
bin	2.67e-05	783
bin	2.67712e-05	797
bin	2.68424e-05	774
bin	2.69136e-05	772
bin	2.69848e-05	759
bin	2.7056e-05	768
bin	2.71272e-05	722
bin	2.71984e-05	708
bin	2.72696e-05	671
bin	2.73408e-05	720
bin	2.7412e-05	737
bin	2.74832e-05	688
bin	2.75544e-05	717
bin	2.76256e-05	669
bin	2.76968e-05	654
bin	2.7768e-05	632
bin	2.78392e-05	628
bin	2.79104e-05	614
bin	2.79816e-05	568
bin	2.80528e-05	642
bin	2.8124e-05	632
bin	2.81952e-05	656
bin	2.82664e-05	646
bin	2.83376e-05	700
bin	2.84088e-05	690
bin	2.848e-05	673
bin	2.85512e-05	678
bin	2.86224e-05	681
bin	2.86936e-05	680
bin	2.87648e-05	700
bin	2.8836e-05	702
bin	2.89072e-05	695
bin	2.89784e-05	694
bin	2.90496e-05	800
bin	2.91208e-05	817
bin	2.9192e-05	785
bin	2.92632e-05	807
bin	2.93344e-05	837
bin	2.94056e-05	823
bin	2.94768e-05	802
bin	2.9548e-05	724
bin	2.96192e-05	740
bin	2.96904e-05	698
bin	2.97616e-05	705
bin	2.98328e-05	721
bin	2.9904e-05	707
bin	2.99752e-05	664
bin	3.00464e-05	653
bin	3.01176e-05	628
bin	3.01888e-05	600
bin	3.026e-05	617
bin	3.03312e-05	599
bin	3.04024e-05	571
bin	3.04736e-05	538
bin	3.05448e-05	541
bin	3.0616e-05	548
bin	3.06872e-05	567
bin	3.07584e-05	597
bin	3.08296e-05	587
bin	3.09008e-05	573
bin	3.0972e-05	594
bin	3.10432e-05	647
bin	3.11144e-05	637
bin	3.11856e-05	718
bin	3.12568e-05	714
bin	3.1328e-05	732
bin	3.13992e-05	721
bin	3.14704e-05	662
bin	3.15416e-05	697
bin	3.16128e-05	736
bin	3.1684e-05	705
bin	3.17552e-05	673
bin	3.18264e-05	643
bin	3.18976e-05	653
bin	3.19688e-05	650
bin	3.204e-05	665
bin	3.21112e-05	642
bin	3.21824e-05	624
bin	3.22536e-05	698
bin	3.23248e-05	721
bin	3.2396e-05	690
bin	3.24672e-05	672
bin	3.25384e-05	699
bin	3.26096e-05	648
bin	3.26808e-05	644
bin	3.2752e-05	613
bin	3.28232e-05	632
bin	3.28944e-05	595
bin	3.29656e-05	590
bin	3.30368e-05	594
bin	3.3108e-05	623
bin	3.31792e-05	632
bin	3.32504e-05	662
bin	3.33216e-05	690
bin	3.33928e-05	647
bin	3.3464e-05	628
bin	3.35352e-05	649
bin	3.36064e-05	664
bin	3.36776e-05	677
bin	3.37488e-05	613
bin	3.382e-05	557
bin	3.38912e-05	561
bin	3.39624e-05	558
bin	3.40336e-05	563
bin	3.41048e-05	583
bin	3.4176e-05	593
bin	3.42472e-05	574
bin	3.43184e-05	569
bin	3.43896e-05	579
bin	3.44608e-05	585
bin	3.4532e-05	576
bin	3.46032e-05	584
bin	3.46744e-05	560
bin	3.47456e-05	543
bin	3.48168e-05	575
bin	3.4888e-05	569
bin	3.49592e-05	586
bin	3.50304e-05	568
bin	3.51016e-05	610
bin	3.51728e-05	624
bin	3.5244e-05	594
bin	3.53152e-05	591
bin	3.53864e-05	665
bin	3.54576e-05	652
bin	3.55288e-05	610
bin	3.56e-05	5452220
statistic Torus3d_bub.timer 	"Life Times"
field count 6291456
field mean 0.0050940069070681
field stddev 0.0031051616367657
field sum 32048.720319515
field sqrsum 223.91879291407
field min 1.463666666e-06
field max 0.012503791980888
bin	-INF	0
bin	0	0
bin	8.544e-07	17
bin	1.7088e-06	133
bin	2.5632e-06	349
bin	3.4176e-06	672
bin	4.272e-06	987
bin	5.1264e-06	1227
bin	5.9808e-06	1496
bin	6.8352e-06	1814
bin	7.6896e-06	2123
bin	8.544e-06	2489
bin	9.3984e-06	2843
bin	1.02528e-05	3252
bin	1.11072e-05	3599
bin	1.19616e-05	3754
bin	1.2816e-05	3969
bin	1.36704e-05	4055
bin	1.45248e-05	4116
bin	1.53792e-05	4217
bin	1.62336e-05	4204
bin	1.7088e-05	4218
bin	1.79424e-05	4301
bin	1.87968e-05	4293
bin	1.96512e-05	4260
bin	2.05056e-05	4306
bin	2.136e-05	4404
bin	2.22144e-05	4481
bin	2.30688e-05	4589
bin	2.39232e-05	4661
bin	2.47776e-05	4835
bin	2.5632e-05	4894
bin	2.64864e-05	4977
bin	2.73408e-05	5166
bin	2.81952e-05	5244
bin	2.90496e-05	5243
bin	2.9904e-05	5538
bin	3.07584e-05	5504
bin	3.16128e-05	5589
bin	3.24672e-05	5749
bin	3.33216e-05	5710
bin	3.4176e-05	5919
bin	3.50304e-05	5865
bin	3.58848e-05	5862
bin	3.67392e-05	5874
bin	3.75936e-05	5817
bin	3.8448e-05	5999
bin	3.93024e-05	5937
bin	4.01568e-05	5977
bin	4.10112e-05	6192
bin	4.18656e-05	6078
bin	4.272e-05	6093
bin	4.35744e-05	6102
bin	4.44288e-05	6116
bin	4.52832e-05	6173
bin	4.61376e-05	6144
bin	4.6992e-05	6129
bin	4.78464e-05	6322
bin	4.87008e-05	6164
bin	4.95552e-05	6297
bin	5.04096e-05	6298
bin	5.1264e-05	6194
bin	5.21184e-05	6095
bin	5.29728e-05	6168
bin	5.38272e-05	6079
bin	5.46816e-05	6198
bin	5.5536e-05	6232
bin	5.63904e-05	5825
bin	5.72448e-05	6149
bin	5.80992e-05	6154
bin	5.89536e-05	6082
bin	5.9808e-05	6085
bin	6.06624e-05	6071
bin	6.15168e-05	6040
bin	6.23712e-05	5663
bin	6.32256e-05	5247
bin	6.408e-05	5018
bin	6.49344e-05	4776
bin	6.57888e-05	4640
bin	6.66432e-05	4480
bin	6.74976e-05	4369
bin	6.8352e-05	4147
bin	6.92064e-05	3977
bin	7.00608e-05	3692
bin	7.09152e-05	3480
bin	7.17696e-05	3276
bin	7.2624e-05	2994
bin	7.34784e-05	2887
bin	7.43328e-05	2579
bin	7.51872e-05	2532
bin	7.60416e-05	2423
bin	7.6896e-05	2162
bin	7.77504e-05	2108
bin	7.86048e-05	2060
bin	7.94592e-05	1831
bin	8.03136e-05	1798
bin	8.1168e-05	1727
bin	8.20224e-05	1636
bin	8.28768e-05	1555
bin	8.37312e-05	1523
bin	8.45856e-05	1435
bin	8.544e-05	1398
bin	8.62944e-05	1358
bin	8.71488e-05	1401
bin	8.80032e-05	1422
bin	8.88576e-05	1343
bin	8.9712e-05	1391
bin	9.05664e-05	1405
bin	9.14208e-05	1276
bin	9.22752e-05	1350
bin	9.31296e-05	1216
bin	9.3984e-05	1340
bin	9.48384e-05	1277
bin	9.56928e-05	1247
bin	9.65472e-05	1257
bin	9.74016e-05	1312
bin	9.8256e-05	1238
bin	9.91104e-05	1312
bin	9.99648e-05	1266
bin	0.0001008192	1332
bin	0.0001016736	1310
bin	0.000102528	1325
bin	0.0001033824	1324
bin	0.0001042368	1323
bin	0.0001050912	1398
bin	0.0001059456	1333
bin	0.0001068	1370
bin	0.0001076544	1310
bin	0.0001085088	1290
bin	0.0001093632	1303
bin	0.0001102176	1240
bin	0.000111072	1274
bin	0.0001119264	1329
bin	0.0001127808	1345
bin	0.0001136352	1370
bin	0.0001144896	1323
bin	0.000115344	1297
bin	0.0001161984	1292
bin	0.0001170528	1307
bin	0.0001179072	1336
bin	0.0001187616	1304
bin	0.000119616	1360
bin	0.0001204704	1405
bin	0.0001213248	1301
bin	0.0001221792	1342
bin	0.0001230336	1254
bin	0.000123888	1293
bin	0.0001247424	1300
bin	0.0001255968	1186
bin	0.0001264512	1221
bin	0.0001273056	1257
bin	0.00012816	1178
bin	0.0001290144	1273
bin	0.0001298688	1208
bin	0.0001307232	1162
bin	0.0001315776	1139
bin	0.000132432	1143
bin	0.0001332864	1133
bin	0.0001341408	1071
bin	0.0001349952	1108
bin	0.0001358496	1089
bin	0.000136704	1053
bin	0.0001375584	1033
bin	0.0001384128	988
bin	0.0001392672	1039
bin	0.0001401216	1049
bin	0.000140976	1019
bin	0.0001418304	963
bin	0.0001426848	941
bin	0.0001435392	934
bin	0.0001443936	917
bin	0.000145248	973
bin	0.0001461024	909
bin	0.0001469568	904
bin	0.0001478112	859
bin	0.0001486656	876
bin	0.00014952	849
bin	0.0001503744	821
bin	0.0001512288	829
bin	0.0001520832	813
bin	0.0001529376	885
bin	0.000153792	855
bin	0.0001546464	870
bin	0.0001555008	859
bin	0.0001563552	868
bin	0.0001572096	817
bin	0.000158064	854
bin	0.0001589184	897
bin	0.0001597728	860
bin	0.0001606272	883
bin	0.0001614816	883
bin	0.000162336	876
bin	0.0001631904	847
bin	0.0001640448	888
bin	0.0001648992	915
bin	0.0001657536	918
bin	0.000166608	932
bin	0.0001674624	952
bin	0.0001683168	918
bin	0.0001691712	920
bin	0.0001700256	899
bin	0.00017088	923
bin	0.0001717344	924
bin	0.0001725888	878
bin	0.0001734432	898
bin	0.0001742976	926
bin	0.000175152	888
bin	0.0001760064	916
bin	0.0001768608	882
bin	0.0001777152	867
bin	0.0001785696	868
bin	0.000179424	885
bin	0.0001802784	886
bin	0.0001811328	835
bin	0.0001819872	814
bin	0.0001828416	895
bin	0.000183696	877
bin	0.0001845504	912
bin	0.0001854048	872
bin	0.0001862592	854
bin	0.0001871136	897
bin	0.000187968	943
bin	0.0001888224	889
bin	0.0001896768	850
bin	0.0001905312	827
bin	0.0001913856	840
bin	0.00019224	790
bin	0.0001930944	809
bin	0.0001939488	802
bin	0.0001948032	822
bin	0.0001956576	826
bin	0.000196512	833
bin	0.0001973664	825
bin	0.0001982208	787
bin	0.0001990752	804
bin	0.0001999296	789
bin	0.000200784	793
bin	0.0002016384	792
bin	0.0002024928	764
bin	0.0002033472	798
bin	0.0002042016	811
bin	0.000205056	796
bin	0.0002059104	835
bin	0.0002067648	782
bin	0.0002076192	738
bin	0.0002084736	738
bin	0.000209328	732
bin	0.0002101824	756
bin	0.0002110368	755
bin	0.0002118912	701
bin	0.0002127456	742
bin	0.0002136	750
bin	0.0002144544	732
bin	0.0002153088	737
bin	0.0002161632	731
bin	0.0002170176	745
bin	0.000217872	730
bin	0.0002187264	736
bin	0.0002195808	754
bin	0.0002204352	749
bin	0.0002212896	693
bin	0.000222144	725
bin	0.0002229984	719
bin	0.0002238528	716
bin	0.0002247072	689
bin	0.0002255616	686
bin	0.000226416	708
bin	0.0002272704	686
bin	0.0002281248	640
bin	0.0002289792	654
bin	0.0002298336	683
bin	0.000230688	602
bin	0.0002315424	673
bin	0.0002323968	665
bin	0.0002332512	649
bin	0.0002341056	651
bin	0.00023496	698
bin	0.0002358144	715
bin	0.0002366688	712
bin	0.0002375232	693
bin	0.0002383776	700
bin	0.000239232	700
bin	0.0002400864	672
bin	0.0002409408	683
bin	0.0002417952	677
bin	0.0002426496	685
bin	0.000243504	708
bin	0.0002443584	684
bin	0.0002452128	706
bin	0.0002460672	688
bin	0.0002469216	661
bin	0.000247776	688
bin	0.0002486304	690
bin	0.0002494848	702
bin	0.0002503392	711
bin	0.0002511936	705
bin	0.000252048	753
bin	0.0002529024	743
bin	0.0002537568	693
bin	0.0002546112	671
bin	0.0002554656	670
bin	0.00025632	659
bin	0.0002571744	638
bin	0.0002580288	648
bin	0.0002588832	626
bin	0.0002597376	649
bin	0.000260592	627
bin	0.0002614464	664
bin	0.0002623008	673
bin	0.0002631552	630
bin	0.0002640096	633
bin	0.000264864	658
bin	0.0002657184	634
bin	0.0002665728	663
bin	0.0002674272	632
bin	0.0002682816	649
bin	0.000269136	647
bin	0.0002699904	618
bin	0.0002708448	624
bin	0.0002716992	664
bin	0.0002725536	566
bin	0.000273408	586
bin	0.0002742624	585
bin	0.0002751168	548
bin	0.0002759712	586
bin	0.0002768256	591
bin	0.00027768	536
bin	0.0002785344	569
bin	0.0002793888	568
bin	0.0002802432	591
bin	0.0002810976	559
bin	0.000281952	547
bin	0.0002828064	521
bin	0.0002836608	540
bin	0.0002845152	573
bin	0.0002853696	557
bin	0.000286224	568
bin	0.0002870784	585
bin	0.0002879328	545
bin	0.0002887872	582
bin	0.0002896416	573
bin	0.000290496	568
bin	0.0002913504	564
bin	0.0002922048	615
bin	0.0002930592	573
bin	0.0002939136	629
bin	0.000294768	645
bin	0.0002956224	626
bin	0.0002964768	621
bin	0.0002973312	639
bin	0.0002981856	643
bin	0.00029904	672
bin	0.0002998944	630
bin	0.0003007488	681
bin	0.0003016032	666
bin	0.0003024576	639
bin	0.000303312	672
bin	0.0003041664	640
bin	0.0003050208	687
bin	0.0003058752	690
bin	0.0003067296	668
bin	0.000307584	691
bin	0.0003084384	689
bin	0.0003092928	675
bin	0.0003101472	705
bin	0.0003110016	704
bin	0.000311856	679
bin	0.0003127104	654
bin	0.0003135648	640
bin	0.0003144192	636
bin	0.0003152736	676
bin	0.000316128	643
bin	0.0003169824	631
bin	0.0003178368	633
bin	0.0003186912	624
bin	0.0003195456	582
bin	0.0003204	584
bin	0.0003212544	596
bin	0.0003221088	577
bin	0.0003229632	618
bin	0.0003238176	617
bin	0.000324672	600
bin	0.0003255264	618
bin	0.0003263808	639
bin	0.0003272352	583
bin	0.0003280896	552
bin	0.000328944	516
bin	0.0003297984	532
bin	0.0003306528	558
bin	0.0003315072	544
bin	0.0003323616	508
bin	0.000333216	561
bin	0.0003340704	570
bin	0.0003349248	552
bin	0.0003357792	524
bin	0.0003366336	534
bin	0.000337488	542
bin	0.0003383424	530
bin	0.0003391968	522
bin	0.0003400512	509
bin	0.0003409056	519
bin	0.00034176	533
bin	0.0003426144	522
bin	0.0003434688	542
bin	0.0003443232	566
bin	0.0003451776	524
bin	0.000346032	526
bin	0.0003468864	522
bin	0.0003477408	588
bin	0.0003485952	570
bin	0.0003494496	575
bin	0.000350304	575
bin	0.0003511584	551
bin	0.0003520128	562
bin	0.0003528672	551
bin	0.0003537216	533
bin	0.000354576	527
bin	0.0003554304	554
bin	0.0003562848	542
bin	0.0003571392	550
bin	0.0003579936	582
bin	0.000358848	551
bin	0.0003597024	584
bin	0.0003605568	605
bin	0.0003614112	581
bin	0.0003622656	576
bin	0.00036312	601
bin	0.0003639744	573
bin	0.0003648288	549
bin	0.0003656832	557
bin	0.0003665376	587
bin	0.000367392	536
bin	0.0003682464	569
bin	0.0003691008	581
bin	0.0003699552	581
bin	0.0003708096	561
bin	0.000371664	537
bin	0.0003725184	578
bin	0.0003733728	547
bin	0.0003742272	556
bin	0.0003750816	569
bin	0.000375936	541
bin	0.0003767904	498
bin	0.0003776448	508
bin	0.0003784992	516
bin	0.0003793536	488
bin	0.000380208	483
bin	0.0003810624	519
bin	0.0003819168	540
bin	0.0003827712	572
bin	0.0003836256	547
bin	0.00038448	535
bin	0.0003853344	509
bin	0.0003861888	520
bin	0.0003870432	526
bin	0.0003878976	564
bin	0.000388752	505
bin	0.0003896064	552
bin	0.0003904608	543
bin	0.0003913152	536
bin	0.0003921696	521
bin	0.000393024	526
bin	0.0003938784	548
bin	0.0003947328	490
bin	0.0003955872	492
bin	0.0003964416	491
bin	0.000397296	484
bin	0.0003981504	492
bin	0.0003990048	493
bin	0.0003998592	514
bin	0.0004007136	491
bin	0.000401568	519
bin	0.0004024224	506
bin	0.0004032768	516
bin	0.0004041312	485
bin	0.0004049856	522
bin	0.00040584	497
bin	0.0004066944	499
bin	0.0004075488	495
bin	0.0004084032	494
bin	0.0004092576	517
bin	0.000410112	488
bin	0.0004109664	486
bin	0.0004118208	485
bin	0.0004126752	481
bin	0.0004135296	490
bin	0.000414384	482
bin	0.0004152384	462
bin	0.0004160928	498
bin	0.0004169472	477
bin	0.0004178016	506
bin	0.000418656	492
bin	0.0004195104	493
bin	0.0004203648	504
bin	0.0004212192	530
bin	0.0004220736	507
bin	0.000422928	536
bin	0.0004237824	448
bin	0.0004246368	449
bin	0.0004254912	494
bin	0.0004263456	463
bin	0.0004272	5559738
