version 2
run Bitcomplement-9-20120709-19:28:30-24878
attr alg 1
attr buf 8
attr configname Bitcomplement
attr datetime 20120709-19:28:30
attr delta 0.6
attr experiment Bitcomplement
attr ext true
attr inifile altro.ini
attr iterationvars "$buf=8, $ext=true, $ofedge=1, $delta=0.6, $alg=1"
attr iterationvars2 "$buf=8, $ext=true, $ofedge=1, $delta=0.6, $alg=1, $repetition=0"
attr measurement "$buf=8, $ext=true, $ofedge=1, $delta=0.6, $alg=1"
attr network Torus3d_bub
attr ofedge 1
attr processid 24878
attr repetition 0
attr replication #0
attr resultdir altro-results
attr runnumber 9
attr seedset 9

scalar . 	alg 	1
scalar . 	buf 	8
scalar . 	delta 	0.6
scalar . 	ofedge 	1
scalar Torus3d_bub.timer 	#endTime 	0.014614918977171
scalar Torus3d_bub.timer 	#totalHops 	103421403
scalar Torus3d_bub.timer 	#totalPacks 	6291456
scalar Torus3d_bub.timer 	#totalDerouted 	4253541
scalar Torus3d_bub.timer 	#totalOutFlanked 	4253541
scalar Torus3d_bub.timer 	#totalCQRed 	0
scalar Torus3d_bub.timer 	#LB 	0.000786432
scalar Torus3d_bub.timer 	#ratio 	0.053810219627521
statistic Torus3d_bub.timer 	"Hop Times"
field count 6291456
field mean 0.00048726963780224
field stddev 0.00037954140466967
field sum 3065.6354863687
field sqrsum 2.4000857419986
field min 4.58777776e-07
field max 0.003983172555555
bin	-INF	0
bin	0	0
bin	7.12e-08	0
bin	1.424e-07	0
bin	2.136e-07	0
bin	2.848e-07	0
bin	3.56e-07	0
bin	4.272e-07	153
bin	4.984e-07	1580
bin	5.696e-07	2419
bin	6.408e-07	2459
bin	7.12e-07	2743
bin	7.832e-07	2935
bin	8.544e-07	3400
bin	9.256e-07	3815
bin	9.968e-07	4332
bin	1.068e-06	4610
bin	1.1392e-06	5084
bin	1.2104e-06	5438
bin	1.2816e-06	5705
bin	1.3528e-06	5935
bin	1.424e-06	6155
bin	1.4952e-06	6465
bin	1.5664e-06	6520
bin	1.6376e-06	6540
bin	1.7088e-06	6562
bin	1.78e-06	6483
bin	1.8512e-06	6415
bin	1.9224e-06	6213
bin	1.9936e-06	6080
bin	2.0648e-06	5959
bin	2.136e-06	5662
bin	2.2072e-06	5636
bin	2.2784e-06	5441
bin	2.3496e-06	5331
bin	2.4208e-06	5228
bin	2.492e-06	4950
bin	2.5632e-06	4800
bin	2.6344e-06	4759
bin	2.7056e-06	4601
bin	2.7768e-06	4402
bin	2.848e-06	4291
bin	2.9192e-06	4044
bin	2.9904e-06	3904
bin	3.0616e-06	3821
bin	3.1328e-06	3503
bin	3.204e-06	3441
bin	3.2752e-06	3239
bin	3.3464e-06	3074
bin	3.4176e-06	2813
bin	3.4888e-06	2676
bin	3.56e-06	2521
bin	3.6312e-06	2416
bin	3.7024e-06	2334
bin	3.7736e-06	2205
bin	3.8448e-06	2078
bin	3.916e-06	2072
bin	3.9872e-06	2088
bin	4.0584e-06	1947
bin	4.1296e-06	1878
bin	4.2008e-06	1774
bin	4.272e-06	1796
bin	4.3432e-06	1778
bin	4.4144e-06	1723
bin	4.4856e-06	1648
bin	4.5568e-06	1690
bin	4.628e-06	1609
bin	4.6992e-06	1630
bin	4.7704e-06	1609
bin	4.8416e-06	1529
bin	4.9128e-06	1450
bin	4.984e-06	1381
bin	5.0552e-06	1356
bin	5.1264e-06	1354
bin	5.1976e-06	1315
bin	5.2688e-06	1312
bin	5.34e-06	1197
bin	5.4112e-06	1203
bin	5.4824e-06	1147
bin	5.5536e-06	1164
bin	5.6248e-06	1116
bin	5.696e-06	1128
bin	5.7672e-06	1166
bin	5.8384e-06	1126
bin	5.9096e-06	1108
bin	5.9808e-06	1078
bin	6.052e-06	990
bin	6.1232e-06	1038
bin	6.1944e-06	1003
bin	6.2656e-06	956
bin	6.3368e-06	979
bin	6.408e-06	996
bin	6.4792e-06	1047
bin	6.5504e-06	988
bin	6.6216e-06	1008
bin	6.6928e-06	992
bin	6.764e-06	1009
bin	6.8352e-06	978
bin	6.9064e-06	969
bin	6.9776e-06	945
bin	7.0488e-06	909
bin	7.12e-06	881
bin	7.1912e-06	895
bin	7.2624e-06	888
bin	7.3336e-06	888
bin	7.4048e-06	851
bin	7.476e-06	823
bin	7.5472e-06	783
bin	7.6184e-06	819
bin	7.6896e-06	774
bin	7.7608e-06	745
bin	7.832e-06	745
bin	7.9032e-06	693
bin	7.9744e-06	658
bin	8.0456e-06	669
bin	8.1168e-06	636
bin	8.188e-06	640
bin	8.2592e-06	663
bin	8.3304e-06	674
bin	8.4016e-06	728
bin	8.4728e-06	697
bin	8.544e-06	667
bin	8.6152e-06	723
bin	8.6864e-06	690
bin	8.7576e-06	727
bin	8.8288e-06	693
bin	8.9e-06	650
bin	8.9712e-06	630
bin	9.0424e-06	659
bin	9.1136e-06	624
bin	9.1848e-06	633
bin	9.256e-06	604
bin	9.3272e-06	661
bin	9.3984e-06	579
bin	9.4696e-06	572
bin	9.5408e-06	610
bin	9.612e-06	598
bin	9.6832e-06	624
bin	9.7544e-06	566
bin	9.8256e-06	591
bin	9.8968e-06	645
bin	9.968e-06	614
bin	1.00392e-05	636
bin	1.01104e-05	580
bin	1.01816e-05	578
bin	1.02528e-05	570
bin	1.0324e-05	551
bin	1.03952e-05	506
bin	1.04664e-05	540
bin	1.05376e-05	551
bin	1.06088e-05	582
bin	1.068e-05	519
bin	1.07512e-05	561
bin	1.08224e-05	527
bin	1.08936e-05	501
bin	1.09648e-05	520
bin	1.1036e-05	542
bin	1.11072e-05	571
bin	1.11784e-05	557
bin	1.12496e-05	558
bin	1.13208e-05	583
bin	1.1392e-05	576
bin	1.14632e-05	515
bin	1.15344e-05	505
bin	1.16056e-05	480
bin	1.16768e-05	491
bin	1.1748e-05	484
bin	1.18192e-05	479
bin	1.18904e-05	483
bin	1.19616e-05	465
bin	1.20328e-05	457
bin	1.2104e-05	427
bin	1.21752e-05	427
bin	1.22464e-05	422
bin	1.23176e-05	434
bin	1.23888e-05	413
bin	1.246e-05	451
bin	1.25312e-05	476
bin	1.26024e-05	455
bin	1.26736e-05	479
bin	1.27448e-05	439
bin	1.2816e-05	468
bin	1.28872e-05	473
bin	1.29584e-05	444
bin	1.30296e-05	453
bin	1.31008e-05	464
bin	1.3172e-05	480
bin	1.32432e-05	445
bin	1.33144e-05	486
bin	1.33856e-05	488
bin	1.34568e-05	477
bin	1.3528e-05	485
bin	1.35992e-05	442
bin	1.36704e-05	405
bin	1.37416e-05	448
bin	1.38128e-05	379
bin	1.3884e-05	383
bin	1.39552e-05	410
bin	1.40264e-05	393
bin	1.40976e-05	407
bin	1.41688e-05	454
bin	1.424e-05	425
bin	1.43112e-05	429
bin	1.43824e-05	413
bin	1.44536e-05	453
bin	1.45248e-05	456
bin	1.4596e-05	426
bin	1.46672e-05	382
bin	1.47384e-05	425
bin	1.48096e-05	393
bin	1.48808e-05	422
bin	1.4952e-05	429
bin	1.50232e-05	414
bin	1.50944e-05	414
bin	1.51656e-05	458
bin	1.52368e-05	444
bin	1.5308e-05	429
bin	1.53792e-05	429
bin	1.54504e-05	431
bin	1.55216e-05	464
bin	1.55928e-05	450
bin	1.5664e-05	411
bin	1.57352e-05	431
bin	1.58064e-05	451
bin	1.58776e-05	444
bin	1.59488e-05	433
bin	1.602e-05	381
bin	1.60912e-05	355
bin	1.61624e-05	409
bin	1.62336e-05	376
bin	1.63048e-05	376
bin	1.6376e-05	351
bin	1.64472e-05	341
bin	1.65184e-05	343
bin	1.65896e-05	344
bin	1.66608e-05	342
bin	1.6732e-05	367
bin	1.68032e-05	343
bin	1.68744e-05	367
bin	1.69456e-05	387
bin	1.70168e-05	379
bin	1.7088e-05	393
bin	1.71592e-05	350
bin	1.72304e-05	386
bin	1.73016e-05	380
bin	1.73728e-05	401
bin	1.7444e-05	362
bin	1.75152e-05	393
bin	1.75864e-05	404
bin	1.76576e-05	402
bin	1.77288e-05	339
bin	1.78e-05	392
bin	1.78712e-05	391
bin	1.79424e-05	376
bin	1.80136e-05	372
bin	1.80848e-05	380
bin	1.8156e-05	354
bin	1.82272e-05	353
bin	1.82984e-05	356
bin	1.83696e-05	376
bin	1.84408e-05	396
bin	1.8512e-05	407
bin	1.85832e-05	398
bin	1.86544e-05	381
bin	1.87256e-05	358
bin	1.87968e-05	365
bin	1.8868e-05	325
bin	1.89392e-05	327
bin	1.90104e-05	328
bin	1.90816e-05	324
bin	1.91528e-05	328
bin	1.9224e-05	298
bin	1.92952e-05	323
bin	1.93664e-05	336
bin	1.94376e-05	349
bin	1.95088e-05	330
bin	1.958e-05	333
bin	1.96512e-05	376
bin	1.97224e-05	397
bin	1.97936e-05	381
bin	1.98648e-05	401
bin	1.9936e-05	400
bin	2.00072e-05	412
bin	2.00784e-05	396
bin	2.01496e-05	388
bin	2.02208e-05	360
bin	2.0292e-05	358
bin	2.03632e-05	335
bin	2.04344e-05	363
bin	2.05056e-05	363
bin	2.05768e-05	370
bin	2.0648e-05	366
bin	2.07192e-05	353
bin	2.07904e-05	351
bin	2.08616e-05	345
bin	2.09328e-05	343
bin	2.1004e-05	378
bin	2.10752e-05	371
bin	2.11464e-05	361
bin	2.12176e-05	331
bin	2.12888e-05	371
bin	2.136e-05	395
bin	2.14312e-05	364
bin	2.15024e-05	369
bin	2.15736e-05	365
bin	2.16448e-05	386
bin	2.1716e-05	367
bin	2.17872e-05	339
bin	2.18584e-05	334
bin	2.19296e-05	323
bin	2.20008e-05	322
bin	2.2072e-05	378
bin	2.21432e-05	375
bin	2.22144e-05	361
bin	2.22856e-05	363
bin	2.23568e-05	351
bin	2.2428e-05	357
bin	2.24992e-05	319
bin	2.25704e-05	354
bin	2.26416e-05	321
bin	2.27128e-05	324
bin	2.2784e-05	345
bin	2.28552e-05	350
bin	2.29264e-05	362
bin	2.29976e-05	345
bin	2.30688e-05	346
bin	2.314e-05	316
bin	2.32112e-05	317
bin	2.32824e-05	304
bin	2.33536e-05	256
bin	2.34248e-05	281
bin	2.3496e-05	320
bin	2.35672e-05	293
bin	2.36384e-05	296
bin	2.37096e-05	296
bin	2.37808e-05	291
bin	2.3852e-05	312
bin	2.39232e-05	281
bin	2.39944e-05	299
bin	2.40656e-05	320
bin	2.41368e-05	363
bin	2.4208e-05	336
bin	2.42792e-05	371
bin	2.43504e-05	364
bin	2.44216e-05	378
bin	2.44928e-05	343
bin	2.4564e-05	338
bin	2.46352e-05	302
bin	2.47064e-05	283
bin	2.47776e-05	302
bin	2.48488e-05	282
bin	2.492e-05	287
bin	2.49912e-05	286
bin	2.50624e-05	274
bin	2.51336e-05	316
bin	2.52048e-05	294
bin	2.5276e-05	325
bin	2.53472e-05	317
bin	2.54184e-05	330
bin	2.54896e-05	302
bin	2.55608e-05	335
bin	2.5632e-05	346
bin	2.57032e-05	327
bin	2.57744e-05	355
bin	2.58456e-05	321
bin	2.59168e-05	351
bin	2.5988e-05	305
bin	2.60592e-05	343
bin	2.61304e-05	340
bin	2.62016e-05	360
bin	2.62728e-05	324
bin	2.6344e-05	325
bin	2.64152e-05	319
bin	2.64864e-05	335
bin	2.65576e-05	327
bin	2.66288e-05	342
bin	2.67e-05	317
bin	2.67712e-05	335
bin	2.68424e-05	341
bin	2.69136e-05	328
bin	2.69848e-05	320
bin	2.7056e-05	308
bin	2.71272e-05	331
bin	2.71984e-05	341
bin	2.72696e-05	318
bin	2.73408e-05	329
bin	2.7412e-05	333
bin	2.74832e-05	337
bin	2.75544e-05	336
bin	2.76256e-05	320
bin	2.76968e-05	332
bin	2.7768e-05	340
bin	2.78392e-05	351
bin	2.79104e-05	355
bin	2.79816e-05	348
bin	2.80528e-05	355
bin	2.8124e-05	322
bin	2.81952e-05	322
bin	2.82664e-05	304
bin	2.83376e-05	322
bin	2.84088e-05	346
bin	2.848e-05	345
bin	2.85512e-05	331
bin	2.86224e-05	325
bin	2.86936e-05	311
bin	2.87648e-05	305
bin	2.8836e-05	287
bin	2.89072e-05	310
bin	2.89784e-05	295
bin	2.90496e-05	279
bin	2.91208e-05	282
bin	2.9192e-05	299
bin	2.92632e-05	311
bin	2.93344e-05	291
bin	2.94056e-05	305
bin	2.94768e-05	271
bin	2.9548e-05	289
bin	2.96192e-05	326
bin	2.96904e-05	329
bin	2.97616e-05	306
bin	2.98328e-05	285
bin	2.9904e-05	274
bin	2.99752e-05	262
bin	3.00464e-05	278
bin	3.01176e-05	276
bin	3.01888e-05	298
bin	3.026e-05	317
bin	3.03312e-05	307
bin	3.04024e-05	300
bin	3.04736e-05	251
bin	3.05448e-05	275
bin	3.0616e-05	263
bin	3.06872e-05	268
bin	3.07584e-05	294
bin	3.08296e-05	269
bin	3.09008e-05	254
bin	3.0972e-05	277
bin	3.10432e-05	266
bin	3.11144e-05	263
bin	3.11856e-05	265
bin	3.12568e-05	255
bin	3.1328e-05	253
bin	3.13992e-05	261
bin	3.14704e-05	250
bin	3.15416e-05	278
bin	3.16128e-05	277
bin	3.1684e-05	313
bin	3.17552e-05	342
bin	3.18264e-05	295
bin	3.18976e-05	295
bin	3.19688e-05	282
bin	3.204e-05	284
bin	3.21112e-05	287
bin	3.21824e-05	274
bin	3.22536e-05	273
bin	3.23248e-05	270
bin	3.2396e-05	252
bin	3.24672e-05	271
bin	3.25384e-05	285
bin	3.26096e-05	287
bin	3.26808e-05	298
bin	3.2752e-05	271
bin	3.28232e-05	275
bin	3.28944e-05	272
bin	3.29656e-05	260
bin	3.30368e-05	311
bin	3.3108e-05	280
bin	3.31792e-05	277
bin	3.32504e-05	267
bin	3.33216e-05	256
bin	3.33928e-05	293
bin	3.3464e-05	279
bin	3.35352e-05	283
bin	3.36064e-05	299
bin	3.36776e-05	277
bin	3.37488e-05	276
bin	3.382e-05	301
bin	3.38912e-05	290
bin	3.39624e-05	299
bin	3.40336e-05	279
bin	3.41048e-05	321
bin	3.4176e-05	299
bin	3.42472e-05	279
bin	3.43184e-05	282
bin	3.43896e-05	276
bin	3.44608e-05	278
bin	3.4532e-05	289
bin	3.46032e-05	267
bin	3.46744e-05	274
bin	3.47456e-05	276
bin	3.48168e-05	274
bin	3.4888e-05	294
bin	3.49592e-05	300
bin	3.50304e-05	297
bin	3.51016e-05	312
bin	3.51728e-05	302
bin	3.5244e-05	325
bin	3.53152e-05	292
bin	3.53864e-05	294
bin	3.54576e-05	285
bin	3.55288e-05	294
bin	3.56e-05	5863957
statistic Torus3d_bub.timer 	"Life Times"
field count 6291456
field mean 0.0068150030528271
field stddev 0.0032991902732092
field sum 42876.291846727
field sqrsum 360.68238613059
field min 1.463666666e-06
field max 0.01430132397766
bin	-INF	0
bin	0	0
bin	8.544e-07	18
bin	1.7088e-06	157
bin	2.5632e-06	454
bin	3.4176e-06	1053
bin	4.272e-06	1611
bin	5.1264e-06	2000
bin	5.9808e-06	2087
bin	6.8352e-06	2277
bin	7.6896e-06	2552
bin	8.544e-06	2692
bin	9.3984e-06	2915
bin	1.02528e-05	3129
bin	1.11072e-05	3267
bin	1.19616e-05	3355
bin	1.2816e-05	3423
bin	1.36704e-05	3466
bin	1.45248e-05	3566
bin	1.53792e-05	3426
bin	1.62336e-05	3569
bin	1.7088e-05	3402
bin	1.79424e-05	3493
bin	1.87968e-05	3392
bin	1.96512e-05	3551
bin	2.05056e-05	3589
bin	2.136e-05	3670
bin	2.22144e-05	3705
bin	2.30688e-05	3825
bin	2.39232e-05	3791
bin	2.47776e-05	3942
bin	2.5632e-05	3943
bin	2.64864e-05	3967
bin	2.73408e-05	4113
bin	2.81952e-05	3961
bin	2.90496e-05	3832
bin	2.9904e-05	3803
bin	3.07584e-05	3827
bin	3.16128e-05	3911
bin	3.24672e-05	3848
bin	3.33216e-05	3868
bin	3.4176e-05	3843
bin	3.50304e-05	3851
bin	3.58848e-05	3955
bin	3.67392e-05	3906
bin	3.75936e-05	3919
bin	3.8448e-05	3881
bin	3.93024e-05	3934
bin	4.01568e-05	3915
bin	4.10112e-05	3837
bin	4.18656e-05	3814
bin	4.272e-05	3547
bin	4.35744e-05	3424
bin	4.44288e-05	3177
bin	4.52832e-05	3127
bin	4.61376e-05	3000
bin	4.6992e-05	2954
bin	4.78464e-05	2739
bin	4.87008e-05	2478
bin	4.95552e-05	2277
bin	5.04096e-05	2286
bin	5.1264e-05	2124
bin	5.21184e-05	2035
bin	5.29728e-05	1910
bin	5.38272e-05	1796
bin	5.46816e-05	1708
bin	5.5536e-05	1643
bin	5.63904e-05	1558
bin	5.72448e-05	1542
bin	5.80992e-05	1434
bin	5.89536e-05	1413
bin	5.9808e-05	1417
bin	6.06624e-05	1370
bin	6.15168e-05	1333
bin	6.23712e-05	1289
bin	6.32256e-05	1254
bin	6.408e-05	1287
bin	6.49344e-05	1228
bin	6.57888e-05	1240
bin	6.66432e-05	1161
bin	6.74976e-05	1209
bin	6.8352e-05	1197
bin	6.92064e-05	1109
bin	7.00608e-05	1119
bin	7.09152e-05	1135
bin	7.17696e-05	1064
bin	7.2624e-05	1005
bin	7.34784e-05	1044
bin	7.43328e-05	1094
bin	7.51872e-05	1046
bin	7.60416e-05	1021
bin	7.6896e-05	1012
bin	7.77504e-05	1057
bin	7.86048e-05	1027
bin	7.94592e-05	1021
bin	8.03136e-05	997
bin	8.1168e-05	1013
bin	8.20224e-05	1048
bin	8.28768e-05	1053
bin	8.37312e-05	977
bin	8.45856e-05	893
bin	8.544e-05	876
bin	8.62944e-05	912
bin	8.71488e-05	857
bin	8.80032e-05	879
bin	8.88576e-05	859
bin	8.9712e-05	826
bin	9.05664e-05	847
bin	9.14208e-05	886
bin	9.22752e-05	852
bin	9.31296e-05	803
bin	9.3984e-05	790
bin	9.48384e-05	783
bin	9.56928e-05	841
bin	9.65472e-05	757
bin	9.74016e-05	661
bin	9.8256e-05	670
bin	9.91104e-05	722
bin	9.99648e-05	649
bin	0.0001008192	637
bin	0.0001016736	679
bin	0.000102528	672
bin	0.0001033824	614
bin	0.0001042368	656
bin	0.0001050912	654
bin	0.0001059456	691
bin	0.0001068	666
bin	0.0001076544	666
bin	0.0001085088	662
bin	0.0001093632	667
bin	0.0001102176	643
bin	0.000111072	618
bin	0.0001119264	643
bin	0.0001127808	614
bin	0.0001136352	638
bin	0.0001144896	652
bin	0.000115344	607
bin	0.0001161984	594
bin	0.0001170528	601
bin	0.0001179072	601
bin	0.0001187616	632
bin	0.000119616	604
bin	0.0001204704	608
bin	0.0001213248	626
bin	0.0001221792	616
bin	0.0001230336	615
bin	0.000123888	701
bin	0.0001247424	667
bin	0.0001255968	689
bin	0.0001264512	694
bin	0.0001273056	656
bin	0.00012816	674
bin	0.0001290144	642
bin	0.0001298688	620
bin	0.0001307232	607
bin	0.0001315776	608
bin	0.000132432	583
bin	0.0001332864	549
bin	0.0001341408	543
bin	0.0001349952	532
bin	0.0001358496	571
bin	0.000136704	592
bin	0.0001375584	563
bin	0.0001384128	602
bin	0.0001392672	533
bin	0.0001401216	530
bin	0.000140976	486
bin	0.0001418304	477
bin	0.0001426848	514
bin	0.0001435392	494
bin	0.0001443936	505
bin	0.000145248	440
bin	0.0001461024	454
bin	0.0001469568	453
bin	0.0001478112	412
bin	0.0001486656	455
bin	0.00014952	466
bin	0.0001503744	463
bin	0.0001512288	428
bin	0.0001520832	428
bin	0.0001529376	446
bin	0.000153792	470
bin	0.0001546464	472
bin	0.0001555008	433
bin	0.0001563552	439
bin	0.0001572096	434
bin	0.000158064	483
bin	0.0001589184	494
bin	0.0001597728	431
bin	0.0001606272	464
bin	0.0001614816	453
bin	0.000162336	496
bin	0.0001631904	456
bin	0.0001640448	488
bin	0.0001648992	464
bin	0.0001657536	446
bin	0.000166608	435
bin	0.0001674624	456
bin	0.0001683168	430
bin	0.0001691712	447
bin	0.0001700256	450
bin	0.00017088	445
bin	0.0001717344	459
bin	0.0001725888	448
bin	0.0001734432	430
bin	0.0001742976	444
bin	0.000175152	405
bin	0.0001760064	434
bin	0.0001768608	399
bin	0.0001777152	398
bin	0.0001785696	369
bin	0.000179424	404
bin	0.0001802784	388
bin	0.0001811328	386
bin	0.0001819872	390
bin	0.0001828416	380
bin	0.000183696	349
bin	0.0001845504	397
bin	0.0001854048	381
bin	0.0001862592	328
bin	0.0001871136	354
bin	0.000187968	372
bin	0.0001888224	369
bin	0.0001896768	362
bin	0.0001905312	345
bin	0.0001913856	329
bin	0.00019224	368
bin	0.0001930944	359
bin	0.0001939488	366
bin	0.0001948032	328
bin	0.0001956576	352
bin	0.000196512	389
bin	0.0001973664	365
bin	0.0001982208	367
bin	0.0001990752	340
bin	0.0001999296	364
bin	0.000200784	355
bin	0.0002016384	362
bin	0.0002024928	368
bin	0.0002033472	361
bin	0.0002042016	360
bin	0.000205056	346
bin	0.0002059104	354
bin	0.0002067648	336
bin	0.0002076192	350
bin	0.0002084736	337
bin	0.000209328	337
bin	0.0002101824	367
bin	0.0002110368	348
bin	0.0002118912	357
bin	0.0002127456	340
bin	0.0002136	350
bin	0.0002144544	315
bin	0.0002153088	329
bin	0.0002161632	327
bin	0.0002170176	317
bin	0.000217872	334
bin	0.0002187264	322
bin	0.0002195808	321
bin	0.0002204352	306
bin	0.0002212896	310
bin	0.000222144	284
bin	0.0002229984	315
bin	0.0002238528	311
bin	0.0002247072	321
bin	0.0002255616	340
bin	0.000226416	312
bin	0.0002272704	334
bin	0.0002281248	334
bin	0.0002289792	300
bin	0.0002298336	288
bin	0.000230688	292
bin	0.0002315424	336
bin	0.0002323968	329
bin	0.0002332512	348
bin	0.0002341056	347
bin	0.00023496	347
bin	0.0002358144	349
bin	0.0002366688	322
bin	0.0002375232	344
bin	0.0002383776	348
bin	0.000239232	297
bin	0.0002400864	306
bin	0.0002409408	341
bin	0.0002417952	335
bin	0.0002426496	324
bin	0.000243504	310
bin	0.0002443584	330
bin	0.0002452128	311
bin	0.0002460672	327
bin	0.0002469216	335
bin	0.000247776	335
bin	0.0002486304	310
bin	0.0002494848	309
bin	0.0002503392	295
bin	0.0002511936	284
bin	0.000252048	281
bin	0.0002529024	295
bin	0.0002537568	317
bin	0.0002546112	276
bin	0.0002554656	295
bin	0.00025632	270
bin	0.0002571744	287
bin	0.0002580288	308
bin	0.0002588832	277
bin	0.0002597376	298
bin	0.000260592	273
bin	0.0002614464	285
bin	0.0002623008	266
bin	0.0002631552	269
bin	0.0002640096	251
bin	0.000264864	267
bin	0.0002657184	242
bin	0.0002665728	245
bin	0.0002674272	243
bin	0.0002682816	257
bin	0.000269136	266
bin	0.0002699904	275
bin	0.0002708448	269
bin	0.0002716992	301
bin	0.0002725536	308
bin	0.000273408	309
bin	0.0002742624	280
bin	0.0002751168	279
bin	0.0002759712	318
bin	0.0002768256	295
bin	0.00027768	290
bin	0.0002785344	292
bin	0.0002793888	245
bin	0.0002802432	264
bin	0.0002810976	294
bin	0.000281952	273
bin	0.0002828064	262
bin	0.0002836608	273
bin	0.0002845152	274
bin	0.0002853696	300
bin	0.000286224	268
bin	0.0002870784	289
bin	0.0002879328	294
bin	0.0002887872	294
bin	0.0002896416	338
bin	0.000290496	316
bin	0.0002913504	282
bin	0.0002922048	266
bin	0.0002930592	281
bin	0.0002939136	259
bin	0.000294768	261
bin	0.0002956224	257
bin	0.0002964768	250
bin	0.0002973312	288
bin	0.0002981856	242
bin	0.00029904	213
bin	0.0002998944	246
bin	0.0003007488	229
bin	0.0003016032	247
bin	0.0003024576	239
bin	0.000303312	242
bin	0.0003041664	228
bin	0.0003050208	223
bin	0.0003058752	232
bin	0.0003067296	248
bin	0.000307584	215
bin	0.0003084384	258
bin	0.0003092928	224
bin	0.0003101472	209
bin	0.0003110016	199
bin	0.000311856	215
bin	0.0003127104	208
bin	0.0003135648	214
bin	0.0003144192	218
bin	0.0003152736	210
bin	0.000316128	235
bin	0.0003169824	211
bin	0.0003178368	215
bin	0.0003186912	226
bin	0.0003195456	252
bin	0.0003204	222
bin	0.0003212544	241
bin	0.0003221088	255
bin	0.0003229632	238
bin	0.0003238176	248
bin	0.000324672	253
bin	0.0003255264	240
bin	0.0003263808	239
bin	0.0003272352	264
bin	0.0003280896	268
bin	0.000328944	254
bin	0.0003297984	278
bin	0.0003306528	271
bin	0.0003315072	263
bin	0.0003323616	249
bin	0.000333216	270
bin	0.0003340704	248
bin	0.0003349248	287
bin	0.0003357792	271
bin	0.0003366336	247
bin	0.000337488	215
bin	0.0003383424	226
bin	0.0003391968	231
bin	0.0003400512	234
bin	0.0003409056	237
bin	0.00034176	227
bin	0.0003426144	228
bin	0.0003434688	218
bin	0.0003443232	217
bin	0.0003451776	212
bin	0.000346032	234
bin	0.0003468864	225
bin	0.0003477408	222
bin	0.0003485952	217
bin	0.0003494496	235
bin	0.000350304	236
bin	0.0003511584	240
bin	0.0003520128	240
bin	0.0003528672	241
bin	0.0003537216	236
bin	0.000354576	246
bin	0.0003554304	244
bin	0.0003562848	235
bin	0.0003571392	243
bin	0.0003579936	247
bin	0.000358848	229
bin	0.0003597024	239
bin	0.0003605568	216
bin	0.0003614112	213
bin	0.0003622656	240
bin	0.00036312	243
bin	0.0003639744	250
bin	0.0003648288	212
bin	0.0003656832	236
bin	0.0003665376	228
bin	0.000367392	233
bin	0.0003682464	260
bin	0.0003691008	242
bin	0.0003699552	269
bin	0.0003708096	250
bin	0.000371664	266
bin	0.0003725184	234
bin	0.0003733728	266
bin	0.0003742272	264
bin	0.0003750816	245
bin	0.000375936	258
bin	0.0003767904	260
bin	0.0003776448	249
bin	0.0003784992	252
bin	0.0003793536	259
bin	0.000380208	253
bin	0.0003810624	283
bin	0.0003819168	250
bin	0.0003827712	282
bin	0.0003836256	256
bin	0.00038448	256
bin	0.0003853344	256
bin	0.0003861888	288
bin	0.0003870432	251
bin	0.0003878976	280
bin	0.000388752	275
bin	0.0003896064	258
bin	0.0003904608	283
bin	0.0003913152	270
bin	0.0003921696	289
bin	0.000393024	265
bin	0.0003938784	256
bin	0.0003947328	268
bin	0.0003955872	226
bin	0.0003964416	234
bin	0.000397296	243
bin	0.0003981504	235
bin	0.0003990048	240
bin	0.0003998592	264
bin	0.0004007136	261
bin	0.000401568	256
bin	0.0004024224	235
bin	0.0004032768	245
bin	0.0004041312	222
bin	0.0004049856	242
bin	0.00040584	228
bin	0.0004066944	215
bin	0.0004075488	214
bin	0.0004084032	206
bin	0.0004092576	217
bin	0.000410112	236
bin	0.0004109664	207
bin	0.0004118208	241
bin	0.0004126752	264
bin	0.0004135296	250
bin	0.000414384	260
bin	0.0004152384	254
bin	0.0004160928	242
bin	0.0004169472	235
bin	0.0004178016	231
bin	0.000418656	245
bin	0.0004195104	241
bin	0.0004203648	248
bin	0.0004212192	239
bin	0.0004220736	233
bin	0.000422928	218
bin	0.0004237824	230
bin	0.0004246368	250
bin	0.0004254912	246
bin	0.0004263456	242
bin	0.0004272	5907644
