version 2
run Bitcomplement-7-20120709-19:23:03-24875
attr alg 3
attr buf 8
attr configname Bitcomplement
attr datetime 20120709-19:23:03
attr delta 0.4
attr experiment Bitcomplement
attr ext true
attr inifile altro.ini
attr iterationvars "$buf=8, $ext=true, $ofedge=1, $delta=0.4, $alg=3"
attr iterationvars2 "$buf=8, $ext=true, $ofedge=1, $delta=0.4, $alg=3, $repetition=0"
attr measurement "$buf=8, $ext=true, $ofedge=1, $delta=0.4, $alg=3"
attr network Torus3d_bub
attr ofedge 1
attr processid 24875
attr repetition 0
attr replication #0
attr resultdir altro-results
attr runnumber 7
attr seedset 7

scalar . 	alg 	3
scalar . 	buf 	8
scalar . 	delta 	0.4
scalar . 	ofedge 	1
scalar Torus3d_bub.timer 	#endTime 	0.011386998982212
scalar Torus3d_bub.timer 	#totalHops 	99839108
scalar Torus3d_bub.timer 	#totalPacks 	6291456
scalar Torus3d_bub.timer 	#totalDerouted 	4794219
scalar Torus3d_bub.timer 	#totalOutFlanked 	3662080
scalar Torus3d_bub.timer 	#totalCQRed 	1132139
scalar Torus3d_bub.timer 	#LB 	0.000786432
scalar Torus3d_bub.timer 	#ratio 	0.069064026547162
statistic Torus3d_bub.timer 	"Hop Times"
field count 6291456
field mean 0.00030902941206197
field stddev 0.00028681217768918
field sum 1944.2449486938
field sqrsum 1.1183716704355
field min 4.41030302e-07
field max 0.003138227555555
bin	-INF	0
bin	0	0
bin	7.12e-08	0
bin	1.424e-07	0
bin	2.136e-07	0
bin	2.848e-07	0
bin	3.56e-07	0
bin	4.272e-07	292
bin	4.984e-07	1988
bin	5.696e-07	3093
bin	6.408e-07	3530
bin	7.12e-07	4432
bin	7.832e-07	5235
bin	8.544e-07	6361
bin	9.256e-07	7497
bin	9.968e-07	8514
bin	1.068e-06	9537
bin	1.1392e-06	10484
bin	1.2104e-06	11511
bin	1.2816e-06	12054
bin	1.3528e-06	12932
bin	1.424e-06	13636
bin	1.4952e-06	14020
bin	1.5664e-06	14147
bin	1.6376e-06	14611
bin	1.7088e-06	14435
bin	1.78e-06	14941
bin	1.8512e-06	14907
bin	1.9224e-06	14897
bin	1.9936e-06	15190
bin	2.0648e-06	15356
bin	2.136e-06	15416
bin	2.2072e-06	15127
bin	2.2784e-06	15428
bin	2.3496e-06	15008
bin	2.4208e-06	15104
bin	2.492e-06	14745
bin	2.5632e-06	14553
bin	2.6344e-06	14532
bin	2.7056e-06	14690
bin	2.7768e-06	14748
bin	2.848e-06	14625
bin	2.9192e-06	14445
bin	2.9904e-06	13914
bin	3.0616e-06	13570
bin	3.1328e-06	13373
bin	3.204e-06	13262
bin	3.2752e-06	12714
bin	3.3464e-06	12244
bin	3.4176e-06	11967
bin	3.4888e-06	11724
bin	3.56e-06	11350
bin	3.6312e-06	10983
bin	3.7024e-06	10383
bin	3.7736e-06	9835
bin	3.8448e-06	9339
bin	3.916e-06	9017
bin	3.9872e-06	8603
bin	4.0584e-06	8325
bin	4.1296e-06	7751
bin	4.2008e-06	7219
bin	4.272e-06	6830
bin	4.3432e-06	6380
bin	4.4144e-06	6282
bin	4.4856e-06	6022
bin	4.5568e-06	5812
bin	4.628e-06	5606
bin	4.6992e-06	5399
bin	4.7704e-06	5350
bin	4.8416e-06	5042
bin	4.9128e-06	5049
bin	4.984e-06	4718
bin	5.0552e-06	4704
bin	5.1264e-06	4459
bin	5.1976e-06	4482
bin	5.2688e-06	4284
bin	5.34e-06	4209
bin	5.4112e-06	3948
bin	5.4824e-06	3992
bin	5.5536e-06	3770
bin	5.6248e-06	3707
bin	5.696e-06	3702
bin	5.7672e-06	3621
bin	5.8384e-06	3635
bin	5.9096e-06	3473
bin	5.9808e-06	3363
bin	6.052e-06	3246
bin	6.1232e-06	3282
bin	6.1944e-06	3291
bin	6.2656e-06	3283
bin	6.3368e-06	3425
bin	6.408e-06	3326
bin	6.4792e-06	3176
bin	6.5504e-06	3087
bin	6.6216e-06	3001
bin	6.6928e-06	2847
bin	6.764e-06	2816
bin	6.8352e-06	2858
bin	6.9064e-06	2667
bin	6.9776e-06	2686
bin	7.0488e-06	2552
bin	7.12e-06	2560
bin	7.1912e-06	2406
bin	7.2624e-06	2375
bin	7.3336e-06	2446
bin	7.4048e-06	2317
bin	7.476e-06	2221
bin	7.5472e-06	2235
bin	7.6184e-06	2144
bin	7.6896e-06	2238
bin	7.7608e-06	2199
bin	7.832e-06	2151
bin	7.9032e-06	2058
bin	7.9744e-06	1995
bin	8.0456e-06	2012
bin	8.1168e-06	1974
bin	8.188e-06	2019
bin	8.2592e-06	2024
bin	8.3304e-06	2013
bin	8.4016e-06	2016
bin	8.4728e-06	2020
bin	8.544e-06	1952
bin	8.6152e-06	1961
bin	8.6864e-06	1886
bin	8.7576e-06	1964
bin	8.8288e-06	1906
bin	8.9e-06	1932
bin	8.9712e-06	1911
bin	9.0424e-06	1804
bin	9.1136e-06	1852
bin	9.1848e-06	1869
bin	9.256e-06	1812
bin	9.3272e-06	1827
bin	9.3984e-06	1751
bin	9.4696e-06	1721
bin	9.5408e-06	1689
bin	9.612e-06	1536
bin	9.6832e-06	1609
bin	9.7544e-06	1536
bin	9.8256e-06	1500
bin	9.8968e-06	1549
bin	9.968e-06	1536
bin	1.00392e-05	1500
bin	1.01104e-05	1524
bin	1.01816e-05	1471
bin	1.02528e-05	1476
bin	1.0324e-05	1519
bin	1.03952e-05	1488
bin	1.04664e-05	1448
bin	1.05376e-05	1470
bin	1.06088e-05	1478
bin	1.068e-05	1510
bin	1.07512e-05	1440
bin	1.08224e-05	1541
bin	1.08936e-05	1409
bin	1.09648e-05	1397
bin	1.1036e-05	1391
bin	1.11072e-05	1442
bin	1.11784e-05	1435
bin	1.12496e-05	1437
bin	1.13208e-05	1454
bin	1.1392e-05	1391
bin	1.14632e-05	1416
bin	1.15344e-05	1474
bin	1.16056e-05	1402
bin	1.16768e-05	1314
bin	1.1748e-05	1353
bin	1.18192e-05	1410
bin	1.18904e-05	1425
bin	1.19616e-05	1360
bin	1.20328e-05	1327
bin	1.2104e-05	1364
bin	1.21752e-05	1307
bin	1.22464e-05	1216
bin	1.23176e-05	1228
bin	1.23888e-05	1306
bin	1.246e-05	1297
bin	1.25312e-05	1278
bin	1.26024e-05	1375
bin	1.26736e-05	1343
bin	1.27448e-05	1274
bin	1.2816e-05	1244
bin	1.28872e-05	1274
bin	1.29584e-05	1219
bin	1.30296e-05	1169
bin	1.31008e-05	1180
bin	1.3172e-05	1146
bin	1.32432e-05	1105
bin	1.33144e-05	1116
bin	1.33856e-05	1109
bin	1.34568e-05	1108
bin	1.3528e-05	1134
bin	1.35992e-05	1159
bin	1.36704e-05	1072
bin	1.37416e-05	1154
bin	1.38128e-05	1116
bin	1.3884e-05	1172
bin	1.39552e-05	1094
bin	1.40264e-05	1102
bin	1.40976e-05	1080
bin	1.41688e-05	1080
bin	1.424e-05	1087
bin	1.43112e-05	1085
bin	1.43824e-05	1110
bin	1.44536e-05	1112
bin	1.45248e-05	1073
bin	1.4596e-05	1120
bin	1.46672e-05	1125
bin	1.47384e-05	1086
bin	1.48096e-05	1110
bin	1.48808e-05	1075
bin	1.4952e-05	1146
bin	1.50232e-05	1137
bin	1.50944e-05	1161
bin	1.51656e-05	1093
bin	1.52368e-05	1176
bin	1.5308e-05	1151
bin	1.53792e-05	1027
bin	1.54504e-05	1115
bin	1.55216e-05	1116
bin	1.55928e-05	1113
bin	1.5664e-05	1087
bin	1.57352e-05	1041
bin	1.58064e-05	998
bin	1.58776e-05	1008
bin	1.59488e-05	973
bin	1.602e-05	1011
bin	1.60912e-05	1018
bin	1.61624e-05	1025
bin	1.62336e-05	1014
bin	1.63048e-05	997
bin	1.6376e-05	1016
bin	1.64472e-05	1051
bin	1.65184e-05	1002
bin	1.65896e-05	1010
bin	1.66608e-05	954
bin	1.6732e-05	986
bin	1.68032e-05	894
bin	1.68744e-05	953
bin	1.69456e-05	914
bin	1.70168e-05	912
bin	1.7088e-05	937
bin	1.71592e-05	919
bin	1.72304e-05	890
bin	1.73016e-05	933
bin	1.73728e-05	1030
bin	1.7444e-05	989
bin	1.75152e-05	977
bin	1.75864e-05	948
bin	1.76576e-05	956
bin	1.77288e-05	920
bin	1.78e-05	899
bin	1.78712e-05	974
bin	1.79424e-05	956
bin	1.80136e-05	966
bin	1.80848e-05	958
bin	1.8156e-05	938
bin	1.82272e-05	919
bin	1.82984e-05	825
bin	1.83696e-05	880
bin	1.84408e-05	887
bin	1.8512e-05	911
bin	1.85832e-05	845
bin	1.86544e-05	889
bin	1.87256e-05	811
bin	1.87968e-05	774
bin	1.8868e-05	824
bin	1.89392e-05	852
bin	1.90104e-05	854
bin	1.90816e-05	782
bin	1.91528e-05	767
bin	1.9224e-05	793
bin	1.92952e-05	856
bin	1.93664e-05	800
bin	1.94376e-05	846
bin	1.95088e-05	823
bin	1.958e-05	834
bin	1.96512e-05	805
bin	1.97224e-05	858
bin	1.97936e-05	857
bin	1.98648e-05	784
bin	1.9936e-05	810
bin	2.00072e-05	787
bin	2.00784e-05	801
bin	2.01496e-05	806
bin	2.02208e-05	855
bin	2.0292e-05	782
bin	2.03632e-05	829
bin	2.04344e-05	807
bin	2.05056e-05	812
bin	2.05768e-05	819
bin	2.0648e-05	815
bin	2.07192e-05	792
bin	2.07904e-05	835
bin	2.08616e-05	818
bin	2.09328e-05	856
bin	2.1004e-05	858
bin	2.10752e-05	859
bin	2.11464e-05	775
bin	2.12176e-05	743
bin	2.12888e-05	701
bin	2.136e-05	754
bin	2.14312e-05	731
bin	2.15024e-05	780
bin	2.15736e-05	750
bin	2.16448e-05	820
bin	2.1716e-05	739
bin	2.17872e-05	753
bin	2.18584e-05	778
bin	2.19296e-05	765
bin	2.20008e-05	698
bin	2.2072e-05	760
bin	2.21432e-05	790
bin	2.22144e-05	794
bin	2.22856e-05	801
bin	2.23568e-05	752
bin	2.2428e-05	807
bin	2.24992e-05	724
bin	2.25704e-05	770
bin	2.26416e-05	716
bin	2.27128e-05	738
bin	2.2784e-05	692
bin	2.28552e-05	713
bin	2.29264e-05	773
bin	2.29976e-05	750
bin	2.30688e-05	758
bin	2.314e-05	753
bin	2.32112e-05	789
bin	2.32824e-05	791
bin	2.33536e-05	740
bin	2.34248e-05	697
bin	2.3496e-05	734
bin	2.35672e-05	672
bin	2.36384e-05	696
bin	2.37096e-05	708
bin	2.37808e-05	677
bin	2.3852e-05	678
bin	2.39232e-05	708
bin	2.39944e-05	725
bin	2.40656e-05	733
bin	2.41368e-05	726
bin	2.4208e-05	700
bin	2.42792e-05	658
bin	2.43504e-05	658
bin	2.44216e-05	645
bin	2.44928e-05	656
bin	2.4564e-05	663
bin	2.46352e-05	673
bin	2.47064e-05	684
bin	2.47776e-05	708
bin	2.48488e-05	705
bin	2.492e-05	657
bin	2.49912e-05	684
bin	2.50624e-05	617
bin	2.51336e-05	645
bin	2.52048e-05	634
bin	2.5276e-05	589
bin	2.53472e-05	639
bin	2.54184e-05	649
bin	2.54896e-05	685
bin	2.55608e-05	665
bin	2.5632e-05	683
bin	2.57032e-05	685
bin	2.57744e-05	744
bin	2.58456e-05	739
bin	2.59168e-05	769
bin	2.5988e-05	765
bin	2.60592e-05	711
bin	2.61304e-05	679
bin	2.62016e-05	698
bin	2.62728e-05	691
bin	2.6344e-05	688
bin	2.64152e-05	682
bin	2.64864e-05	687
bin	2.65576e-05	689
bin	2.66288e-05	680
bin	2.67e-05	698
bin	2.67712e-05	670
bin	2.68424e-05	657
bin	2.69136e-05	687
bin	2.69848e-05	675
bin	2.7056e-05	649
bin	2.71272e-05	714
bin	2.71984e-05	718
bin	2.72696e-05	701
bin	2.73408e-05	672
bin	2.7412e-05	667
bin	2.74832e-05	695
bin	2.75544e-05	646
bin	2.76256e-05	669
bin	2.76968e-05	638
bin	2.7768e-05	632
bin	2.78392e-05	659
bin	2.79104e-05	665
bin	2.79816e-05	683
bin	2.80528e-05	651
bin	2.8124e-05	668
bin	2.81952e-05	581
bin	2.82664e-05	615
bin	2.83376e-05	609
bin	2.84088e-05	641
bin	2.848e-05	664
bin	2.85512e-05	696
bin	2.86224e-05	665
bin	2.86936e-05	630
bin	2.87648e-05	627
bin	2.8836e-05	622
bin	2.89072e-05	626
bin	2.89784e-05	636
bin	2.90496e-05	658
bin	2.91208e-05	621
bin	2.9192e-05	669
bin	2.92632e-05	678
bin	2.93344e-05	659
bin	2.94056e-05	612
bin	2.94768e-05	636
bin	2.9548e-05	670
bin	2.96192e-05	648
bin	2.96904e-05	603
bin	2.97616e-05	589
bin	2.98328e-05	606
bin	2.9904e-05	605
bin	2.99752e-05	601
bin	3.00464e-05	641
bin	3.01176e-05	651
bin	3.01888e-05	592
bin	3.026e-05	617
bin	3.03312e-05	559
bin	3.04024e-05	586
bin	3.04736e-05	573
bin	3.05448e-05	570
bin	3.0616e-05	586
bin	3.06872e-05	572
bin	3.07584e-05	576
bin	3.08296e-05	588
bin	3.09008e-05	592
bin	3.0972e-05	574
bin	3.10432e-05	610
bin	3.11144e-05	546
bin	3.11856e-05	549
bin	3.12568e-05	522
bin	3.1328e-05	543
bin	3.13992e-05	564
bin	3.14704e-05	563
bin	3.15416e-05	588
bin	3.16128e-05	614
bin	3.1684e-05	575
bin	3.17552e-05	599
bin	3.18264e-05	589
bin	3.18976e-05	628
bin	3.19688e-05	664
bin	3.204e-05	638
bin	3.21112e-05	709
bin	3.21824e-05	673
bin	3.22536e-05	703
bin	3.23248e-05	714
bin	3.2396e-05	676
bin	3.24672e-05	739
bin	3.25384e-05	703
bin	3.26096e-05	736
bin	3.26808e-05	704
bin	3.2752e-05	682
bin	3.28232e-05	640
bin	3.28944e-05	654
bin	3.29656e-05	718
bin	3.30368e-05	698
bin	3.3108e-05	686
bin	3.31792e-05	655
bin	3.32504e-05	652
bin	3.33216e-05	587
bin	3.33928e-05	622
bin	3.3464e-05	603
bin	3.35352e-05	638
bin	3.36064e-05	587
bin	3.36776e-05	594
bin	3.37488e-05	619
bin	3.382e-05	575
bin	3.38912e-05	615
bin	3.39624e-05	597
bin	3.40336e-05	541
bin	3.41048e-05	622
bin	3.4176e-05	591
bin	3.42472e-05	643
bin	3.43184e-05	632
bin	3.43896e-05	645
bin	3.44608e-05	635
bin	3.4532e-05	623
bin	3.46032e-05	607
bin	3.46744e-05	618
bin	3.47456e-05	591
bin	3.48168e-05	606
bin	3.4888e-05	629
bin	3.49592e-05	581
bin	3.50304e-05	579
bin	3.51016e-05	579
bin	3.51728e-05	569
bin	3.5244e-05	562
bin	3.53152e-05	568
bin	3.53864e-05	607
bin	3.54576e-05	572
bin	3.55288e-05	585
bin	3.56e-05	5126772
statistic Torus3d_bub.timer 	"Life Times"
field count 6291456
field mean 0.0040698708574455
field stddev 0.0026938956755331
field sum 25605.4134253
field sqrsum 149.86827983304
field min 1.463666666e-06
field max 0.011069535982708
bin	-INF	0
bin	0	0
bin	8.544e-07	16
bin	1.7088e-06	167
bin	2.5632e-06	526
bin	3.4176e-06	926
bin	4.272e-06	1340
bin	5.1264e-06	1799
bin	5.9808e-06	1926
bin	6.8352e-06	2197
bin	7.6896e-06	2557
bin	8.544e-06	2835
bin	9.3984e-06	3009
bin	1.02528e-05	3361
bin	1.11072e-05	3611
bin	1.19616e-05	3808
bin	1.2816e-05	4037
bin	1.36704e-05	4156
bin	1.45248e-05	4354
bin	1.53792e-05	4567
bin	1.62336e-05	4755
bin	1.7088e-05	4951
bin	1.79424e-05	5299
bin	1.87968e-05	5439
bin	1.96512e-05	5797
bin	2.05056e-05	5799
bin	2.136e-05	6046
bin	2.22144e-05	6408
bin	2.30688e-05	6599
bin	2.39232e-05	6871
bin	2.47776e-05	7150
bin	2.5632e-05	7331
bin	2.64864e-05	7665
bin	2.73408e-05	7984
bin	2.81952e-05	7984
bin	2.90496e-05	8120
bin	2.9904e-05	8344
bin	3.07584e-05	8408
bin	3.16128e-05	8733
bin	3.24672e-05	8823
bin	3.33216e-05	8921
bin	3.4176e-05	9157
bin	3.50304e-05	9042
bin	3.58848e-05	9157
bin	3.67392e-05	9493
bin	3.75936e-05	9523
bin	3.8448e-05	9699
bin	3.93024e-05	9886
bin	4.01568e-05	9882
bin	4.10112e-05	10205
bin	4.18656e-05	9931
bin	4.272e-05	10281
bin	4.35744e-05	10330
bin	4.44288e-05	9988
bin	4.52832e-05	10326
bin	4.61376e-05	10402
bin	4.6992e-05	10060
bin	4.78464e-05	10219
bin	4.87008e-05	10248
bin	4.95552e-05	9928
bin	5.04096e-05	10231
bin	5.1264e-05	10104
bin	5.21184e-05	10265
bin	5.29728e-05	10167
bin	5.38272e-05	10037
bin	5.46816e-05	10193
bin	5.5536e-05	10192
bin	5.63904e-05	9983
bin	5.72448e-05	10016
bin	5.80992e-05	9992
bin	5.89536e-05	9892
bin	5.9808e-05	10164
bin	6.06624e-05	9823
bin	6.15168e-05	9620
bin	6.23712e-05	9161
bin	6.32256e-05	8582
bin	6.408e-05	8337
bin	6.49344e-05	8171
bin	6.57888e-05	7943
bin	6.66432e-05	7573
bin	6.74976e-05	7309
bin	6.8352e-05	6706
bin	6.92064e-05	6735
bin	7.00608e-05	6229
bin	7.09152e-05	5850
bin	7.17696e-05	5706
bin	7.2624e-05	5249
bin	7.34784e-05	5109
bin	7.43328e-05	4781
bin	7.51872e-05	4586
bin	7.60416e-05	4476
bin	7.6896e-05	4125
bin	7.77504e-05	4025
bin	7.86048e-05	3863
bin	7.94592e-05	3602
bin	8.03136e-05	3421
bin	8.1168e-05	3380
bin	8.20224e-05	3256
bin	8.28768e-05	3322
bin	8.37312e-05	3061
bin	8.45856e-05	3049
bin	8.544e-05	2939
bin	8.62944e-05	2745
bin	8.71488e-05	2649
bin	8.80032e-05	2645
bin	8.88576e-05	2583
bin	8.9712e-05	2539
bin	9.05664e-05	2539
bin	9.14208e-05	2353
bin	9.22752e-05	2388
bin	9.31296e-05	2380
bin	9.3984e-05	2347
bin	9.48384e-05	2309
bin	9.56928e-05	2249
bin	9.65472e-05	2274
bin	9.74016e-05	2224
bin	9.8256e-05	2101
bin	9.91104e-05	2122
bin	9.99648e-05	2167
bin	0.0001008192	2028
bin	0.0001016736	2032
bin	0.000102528	2013
bin	0.0001033824	2019
bin	0.0001042368	2005
bin	0.0001050912	2026
bin	0.0001059456	2031
bin	0.0001068	2047
bin	0.0001076544	2031
bin	0.0001085088	2054
bin	0.0001093632	2059
bin	0.0001102176	2037
bin	0.000111072	2127
bin	0.0001119264	2109
bin	0.0001127808	2132
bin	0.0001136352	2181
bin	0.0001144896	2081
bin	0.000115344	2137
bin	0.0001161984	2070
bin	0.0001170528	2011
bin	0.0001179072	1975
bin	0.0001187616	2087
bin	0.000119616	1950
bin	0.0001204704	2037
bin	0.0001213248	2098
bin	0.0001221792	2134
bin	0.0001230336	2142
bin	0.000123888	2110
bin	0.0001247424	2116
bin	0.0001255968	2167
bin	0.0001264512	2039
bin	0.0001273056	2045
bin	0.00012816	2038
bin	0.0001290144	2158
bin	0.0001298688	2119
bin	0.0001307232	2015
bin	0.0001315776	2038
bin	0.000132432	2076
bin	0.0001332864	1969
bin	0.0001341408	2012
bin	0.0001349952	1812
bin	0.0001358496	1768
bin	0.000136704	1716
bin	0.0001375584	1548
bin	0.0001384128	1609
bin	0.0001392672	1630
bin	0.0001401216	1505
bin	0.000140976	1518
bin	0.0001418304	1403
bin	0.0001426848	1317
bin	0.0001435392	1335
bin	0.0001443936	1298
bin	0.000145248	1302
bin	0.0001461024	1326
bin	0.0001469568	1194
bin	0.0001478112	1260
bin	0.0001486656	1201
bin	0.00014952	1180
bin	0.0001503744	1177
bin	0.0001512288	1157
bin	0.0001520832	1220
bin	0.0001529376	1202
bin	0.000153792	1145
bin	0.0001546464	1210
bin	0.0001555008	1200
bin	0.0001563552	1148
bin	0.0001572096	1206
bin	0.000158064	1178
bin	0.0001589184	1069
bin	0.0001597728	1079
bin	0.0001606272	1117
bin	0.0001614816	1084
bin	0.000162336	1139
bin	0.0001631904	1110
bin	0.0001640448	1100
bin	0.0001648992	1075
bin	0.0001657536	1074
bin	0.000166608	1087
bin	0.0001674624	1106
bin	0.0001683168	1165
bin	0.0001691712	1157
bin	0.0001700256	1109
bin	0.00017088	1089
bin	0.0001717344	1118
bin	0.0001725888	1081
bin	0.0001734432	1137
bin	0.0001742976	1118
bin	0.000175152	1132
bin	0.0001760064	1257
bin	0.0001768608	1255
bin	0.0001777152	1206
bin	0.0001785696	1184
bin	0.000179424	1211
bin	0.0001802784	1224
bin	0.0001811328	1274
bin	0.0001819872	1165
bin	0.0001828416	1257
bin	0.000183696	1244
bin	0.0001845504	1307
bin	0.0001854048	1262
bin	0.0001862592	1224
bin	0.0001871136	1216
bin	0.000187968	1228
bin	0.0001888224	1251
bin	0.0001896768	1274
bin	0.0001905312	1261
bin	0.0001913856	1254
bin	0.00019224	1202
bin	0.0001930944	1245
bin	0.0001939488	1287
bin	0.0001948032	1224
bin	0.0001956576	1133
bin	0.000196512	1196
bin	0.0001973664	1082
bin	0.0001982208	1036
bin	0.0001990752	1016
bin	0.0001999296	988
bin	0.000200784	990
bin	0.0002016384	891
bin	0.0002024928	868
bin	0.0002033472	917
bin	0.0002042016	840
bin	0.000205056	853
bin	0.0002059104	889
bin	0.0002067648	857
bin	0.0002076192	854
bin	0.0002084736	836
bin	0.000209328	783
bin	0.0002101824	785
bin	0.0002110368	777
bin	0.0002118912	766
bin	0.0002127456	773
bin	0.0002136	787
bin	0.0002144544	749
bin	0.0002153088	749
bin	0.0002161632	779
bin	0.0002170176	771
bin	0.000217872	754
bin	0.0002187264	773
bin	0.0002195808	827
bin	0.0002204352	820
bin	0.0002212896	806
bin	0.000222144	852
bin	0.0002229984	870
bin	0.0002238528	889
bin	0.0002247072	875
bin	0.0002255616	864
bin	0.000226416	899
bin	0.0002272704	888
bin	0.0002281248	901
bin	0.0002289792	849
bin	0.0002298336	885
bin	0.000230688	857
bin	0.0002315424	907
bin	0.0002323968	867
bin	0.0002332512	822
bin	0.0002341056	845
bin	0.00023496	842
bin	0.0002358144	848
bin	0.0002366688	834
bin	0.0002375232	830
bin	0.0002383776	886
bin	0.000239232	890
bin	0.0002400864	897
bin	0.0002409408	922
bin	0.0002417952	912
bin	0.0002426496	904
bin	0.000243504	914
bin	0.0002443584	895
bin	0.0002452128	947
bin	0.0002460672	911
bin	0.0002469216	909
bin	0.000247776	884
bin	0.0002486304	918
bin	0.0002494848	887
bin	0.0002503392	924
bin	0.0002511936	894
bin	0.000252048	951
bin	0.0002529024	876
bin	0.0002537568	886
bin	0.0002546112	861
bin	0.0002554656	817
bin	0.00025632	823
bin	0.0002571744	868
bin	0.0002580288	829
bin	0.0002588832	815
bin	0.0002597376	828
bin	0.000260592	811
bin	0.0002614464	802
bin	0.0002623008	779
bin	0.0002631552	756
bin	0.0002640096	739
bin	0.000264864	764
bin	0.0002657184	695
bin	0.0002665728	710
bin	0.0002674272	660
bin	0.0002682816	630
bin	0.000269136	604
bin	0.0002699904	610
bin	0.0002708448	641
bin	0.0002716992	621
bin	0.0002725536	616
bin	0.000273408	630
bin	0.0002742624	591
bin	0.0002751168	580
bin	0.0002759712	609
bin	0.0002768256	590
bin	0.00027768	587
bin	0.0002785344	594
bin	0.0002793888	592
bin	0.0002802432	615
bin	0.0002810976	618
bin	0.000281952	589
bin	0.0002828064	628
bin	0.0002836608	635
bin	0.0002845152	627
bin	0.0002853696	622
bin	0.000286224	636
bin	0.0002870784	670
bin	0.0002879328	664
bin	0.0002887872	644
bin	0.0002896416	632
bin	0.000290496	661
bin	0.0002913504	656
bin	0.0002922048	639
bin	0.0002930592	634
bin	0.0002939136	660
bin	0.000294768	646
bin	0.0002956224	659
bin	0.0002964768	656
bin	0.0002973312	639
bin	0.0002981856	621
bin	0.00029904	642
bin	0.0002998944	667
bin	0.0003007488	670
bin	0.0003016032	691
bin	0.0003024576	687
bin	0.000303312	655
bin	0.0003041664	684
bin	0.0003050208	664
bin	0.0003058752	682
bin	0.0003067296	693
bin	0.000307584	682
bin	0.0003084384	709
bin	0.0003092928	693
bin	0.0003101472	670
bin	0.0003110016	647
bin	0.000311856	711
bin	0.0003127104	720
bin	0.0003135648	733
bin	0.0003144192	727
bin	0.0003152736	728
bin	0.000316128	726
bin	0.0003169824	695
bin	0.0003178368	664
bin	0.0003186912	640
bin	0.0003195456	583
bin	0.0003204	606
bin	0.0003212544	590
bin	0.0003221088	572
bin	0.0003229632	582
bin	0.0003238176	560
bin	0.000324672	572
bin	0.0003255264	579
bin	0.0003263808	605
bin	0.0003272352	569
bin	0.0003280896	566
bin	0.000328944	570
bin	0.0003297984	587
bin	0.0003306528	514
bin	0.0003315072	530
bin	0.0003323616	523
bin	0.000333216	533
bin	0.0003340704	534
bin	0.0003349248	553
bin	0.0003357792	589
bin	0.0003366336	530
bin	0.000337488	532
bin	0.0003383424	487
bin	0.0003391968	482
bin	0.0003400512	494
bin	0.0003409056	500
bin	0.00034176	529
bin	0.0003426144	547
bin	0.0003434688	562
bin	0.0003443232	525
bin	0.0003451776	553
bin	0.000346032	517
bin	0.0003468864	556
bin	0.0003477408	607
bin	0.0003485952	561
bin	0.0003494496	564
bin	0.000350304	577
bin	0.0003511584	567
bin	0.0003520128	548
bin	0.0003528672	529
bin	0.0003537216	560
bin	0.000354576	567
bin	0.0003554304	568
bin	0.0003562848	532
bin	0.0003571392	549
bin	0.0003579936	496
bin	0.000358848	542
bin	0.0003597024	529
bin	0.0003605568	557
bin	0.0003614112	519
bin	0.0003622656	542
bin	0.00036312	544
bin	0.0003639744	551
bin	0.0003648288	572
bin	0.0003656832	583
bin	0.0003665376	604
bin	0.000367392	564
bin	0.0003682464	564
bin	0.0003691008	601
bin	0.0003699552	597
bin	0.0003708096	617
bin	0.000371664	642
bin	0.0003725184	650
bin	0.0003733728	630
bin	0.0003742272	587
bin	0.0003750816	628
bin	0.000375936	631
bin	0.0003767904	603
bin	0.0003776448	656
bin	0.0003784992	636
bin	0.0003793536	577
bin	0.000380208	610
bin	0.0003810624	620
bin	0.0003819168	571
bin	0.0003827712	593
bin	0.0003836256	540
bin	0.00038448	559
bin	0.0003853344	555
bin	0.0003861888	504
bin	0.0003870432	485
bin	0.0003878976	519
bin	0.000388752	514
bin	0.0003896064	519
bin	0.0003904608	480
bin	0.0003913152	486
bin	0.0003921696	516
bin	0.000393024	494
bin	0.0003938784	505
bin	0.0003947328	455
bin	0.0003955872	462
bin	0.0003964416	474
bin	0.000397296	464
bin	0.0003981504	465
bin	0.0003990048	501
bin	0.0003998592	482
bin	0.0004007136	478
bin	0.000401568	469
bin	0.0004024224	420
bin	0.0004032768	458
bin	0.0004041312	478
bin	0.0004049856	477
bin	0.00040584	465
bin	0.0004066944	484
bin	0.0004075488	504
bin	0.0004084032	521
bin	0.0004092576	501
bin	0.000410112	483
bin	0.0004109664	556
bin	0.0004118208	510
bin	0.0004126752	481
bin	0.0004135296	453
bin	0.000414384	490
bin	0.0004152384	464
bin	0.0004160928	483
bin	0.0004169472	472
bin	0.0004178016	530
bin	0.000418656	525
bin	0.0004195104	548
bin	0.0004203648	525
bin	0.0004212192	525
bin	0.0004220736	524
bin	0.000422928	511
bin	0.0004237824	539
bin	0.0004246368	538
bin	0.0004254912	518
bin	0.0004263456	548
bin	0.0004272	5228171
