version 2
run Bitcomplement-23-20120709-20:16:15-24894
attr alg 3
attr buf 8
attr configname Bitcomplement
attr datetime 20120709-20:16:15
attr delta 0.6
attr experiment Bitcomplement
attr ext true
attr inifile altro.ini
attr iterationvars "$buf=8, $ext=true, $ofedge=2, $delta=0.6, $alg=3"
attr iterationvars2 "$buf=8, $ext=true, $ofedge=2, $delta=0.6, $alg=3, $repetition=0"
attr measurement "$buf=8, $ext=true, $ofedge=2, $delta=0.6, $alg=3"
attr network Torus3d_bub
attr ofedge 2
attr processid 24894
attr repetition 0
attr replication #0
attr resultdir altro-results
attr runnumber 23
attr seedset 23

scalar . 	alg 	3
scalar . 	buf 	8
scalar . 	delta 	0.6
scalar . 	ofedge 	2
scalar Torus3d_bub.timer 	#endTime 	0.014149852311757
scalar Torus3d_bub.timer 	#totalHops 	110651994
scalar Torus3d_bub.timer 	#totalPacks 	6291456
scalar Torus3d_bub.timer 	#totalDerouted 	4776001
scalar Torus3d_bub.timer 	#totalOutFlanked 	2839539
scalar Torus3d_bub.timer 	#totalCQRed 	1936462
scalar Torus3d_bub.timer 	#LB 	0.000786432
scalar Torus3d_bub.timer 	#ratio 	0.055578813310056
statistic Torus3d_bub.timer 	"Hop Times"
field count 6291456
field mean 0.00040098976191301
field stddev 0.00030587405685263
field sum 2522.8094435262
field sqrsum 1.6002426105102
field min 4.51575757e-07
field max 0.003737692444444
bin	-INF	0
bin	0	0
bin	7.12e-08	0
bin	1.424e-07	0
bin	2.136e-07	0
bin	2.848e-07	0
bin	3.56e-07	0
bin	4.272e-07	92
bin	4.984e-07	997
bin	5.696e-07	2183
bin	6.408e-07	2454
bin	7.12e-07	3071
bin	7.832e-07	3535
bin	8.544e-07	4216
bin	9.256e-07	4697
bin	9.968e-07	5147
bin	1.068e-06	5612
bin	1.1392e-06	5714
bin	1.2104e-06	6242
bin	1.2816e-06	6221
bin	1.3528e-06	6429
bin	1.424e-06	6632
bin	1.4952e-06	6526
bin	1.5664e-06	6344
bin	1.6376e-06	6483
bin	1.7088e-06	6331
bin	1.78e-06	6332
bin	1.8512e-06	6332
bin	1.9224e-06	6411
bin	1.9936e-06	6163
bin	2.0648e-06	6068
bin	2.136e-06	6001
bin	2.2072e-06	5906
bin	2.2784e-06	5810
bin	2.3496e-06	5567
bin	2.4208e-06	5503
bin	2.492e-06	5281
bin	2.5632e-06	5006
bin	2.6344e-06	4610
bin	2.7056e-06	4579
bin	2.7768e-06	4322
bin	2.848e-06	4117
bin	2.9192e-06	3999
bin	2.9904e-06	3716
bin	3.0616e-06	3674
bin	3.1328e-06	3542
bin	3.204e-06	3349
bin	3.2752e-06	3185
bin	3.3464e-06	2981
bin	3.4176e-06	2885
bin	3.4888e-06	2732
bin	3.56e-06	2724
bin	3.6312e-06	2581
bin	3.7024e-06	2431
bin	3.7736e-06	2178
bin	3.8448e-06	2253
bin	3.916e-06	2121
bin	3.9872e-06	2083
bin	4.0584e-06	2009
bin	4.1296e-06	1957
bin	4.2008e-06	1988
bin	4.272e-06	1958
bin	4.3432e-06	1958
bin	4.4144e-06	1836
bin	4.4856e-06	1711
bin	4.5568e-06	1708
bin	4.628e-06	1708
bin	4.6992e-06	1674
bin	4.7704e-06	1721
bin	4.8416e-06	1604
bin	4.9128e-06	1592
bin	4.984e-06	1502
bin	5.0552e-06	1516
bin	5.1264e-06	1481
bin	5.1976e-06	1378
bin	5.2688e-06	1400
bin	5.34e-06	1403
bin	5.4112e-06	1333
bin	5.4824e-06	1284
bin	5.5536e-06	1357
bin	5.6248e-06	1317
bin	5.696e-06	1304
bin	5.7672e-06	1323
bin	5.8384e-06	1312
bin	5.9096e-06	1229
bin	5.9808e-06	1279
bin	6.052e-06	1247
bin	6.1232e-06	1282
bin	6.1944e-06	1195
bin	6.2656e-06	1306
bin	6.3368e-06	1264
bin	6.408e-06	1193
bin	6.4792e-06	1131
bin	6.5504e-06	1083
bin	6.6216e-06	1066
bin	6.6928e-06	1066
bin	6.764e-06	1080
bin	6.8352e-06	1083
bin	6.9064e-06	1122
bin	6.9776e-06	1066
bin	7.0488e-06	1127
bin	7.12e-06	1147
bin	7.1912e-06	1082
bin	7.2624e-06	1076
bin	7.3336e-06	1088
bin	7.4048e-06	1075
bin	7.476e-06	1057
bin	7.5472e-06	1021
bin	7.6184e-06	1016
bin	7.6896e-06	1004
bin	7.7608e-06	1062
bin	7.832e-06	1041
bin	7.9032e-06	998
bin	7.9744e-06	1041
bin	8.0456e-06	983
bin	8.1168e-06	959
bin	8.188e-06	984
bin	8.2592e-06	926
bin	8.3304e-06	905
bin	8.4016e-06	886
bin	8.4728e-06	867
bin	8.544e-06	909
bin	8.6152e-06	837
bin	8.6864e-06	891
bin	8.7576e-06	885
bin	8.8288e-06	870
bin	8.9e-06	863
bin	8.9712e-06	919
bin	9.0424e-06	922
bin	9.1136e-06	837
bin	9.1848e-06	904
bin	9.256e-06	832
bin	9.3272e-06	794
bin	9.3984e-06	789
bin	9.4696e-06	753
bin	9.5408e-06	798
bin	9.612e-06	875
bin	9.6832e-06	872
bin	9.7544e-06	839
bin	9.8256e-06	838
bin	9.8968e-06	834
bin	9.968e-06	848
bin	1.00392e-05	825
bin	1.01104e-05	766
bin	1.01816e-05	790
bin	1.02528e-05	792
bin	1.0324e-05	827
bin	1.03952e-05	834
bin	1.04664e-05	798
bin	1.05376e-05	785
bin	1.06088e-05	815
bin	1.068e-05	826
bin	1.07512e-05	802
bin	1.08224e-05	832
bin	1.08936e-05	756
bin	1.09648e-05	734
bin	1.1036e-05	687
bin	1.11072e-05	727
bin	1.11784e-05	782
bin	1.12496e-05	751
bin	1.13208e-05	788
bin	1.1392e-05	779
bin	1.14632e-05	808
bin	1.15344e-05	769
bin	1.16056e-05	752
bin	1.16768e-05	722
bin	1.1748e-05	695
bin	1.18192e-05	678
bin	1.18904e-05	647
bin	1.19616e-05	688
bin	1.20328e-05	708
bin	1.2104e-05	696
bin	1.21752e-05	737
bin	1.22464e-05	733
bin	1.23176e-05	748
bin	1.23888e-05	714
bin	1.246e-05	679
bin	1.25312e-05	688
bin	1.26024e-05	697
bin	1.26736e-05	715
bin	1.27448e-05	682
bin	1.2816e-05	705
bin	1.28872e-05	636
bin	1.29584e-05	671
bin	1.30296e-05	668
bin	1.31008e-05	672
bin	1.3172e-05	697
bin	1.32432e-05	706
bin	1.33144e-05	652
bin	1.33856e-05	672
bin	1.34568e-05	675
bin	1.3528e-05	662
bin	1.35992e-05	633
bin	1.36704e-05	679
bin	1.37416e-05	660
bin	1.38128e-05	632
bin	1.3884e-05	684
bin	1.39552e-05	676
bin	1.40264e-05	611
bin	1.40976e-05	613
bin	1.41688e-05	667
bin	1.424e-05	691
bin	1.43112e-05	675
bin	1.43824e-05	667
bin	1.44536e-05	685
bin	1.45248e-05	678
bin	1.4596e-05	681
bin	1.46672e-05	687
bin	1.47384e-05	721
bin	1.48096e-05	719
bin	1.48808e-05	712
bin	1.4952e-05	715
bin	1.50232e-05	671
bin	1.50944e-05	658
bin	1.51656e-05	652
bin	1.52368e-05	677
bin	1.5308e-05	631
bin	1.53792e-05	652
bin	1.54504e-05	659
bin	1.55216e-05	606
bin	1.55928e-05	569
bin	1.5664e-05	578
bin	1.57352e-05	573
bin	1.58064e-05	581
bin	1.58776e-05	533
bin	1.59488e-05	579
bin	1.602e-05	611
bin	1.60912e-05	621
bin	1.61624e-05	635
bin	1.62336e-05	653
bin	1.63048e-05	642
bin	1.6376e-05	674
bin	1.64472e-05	643
bin	1.65184e-05	643
bin	1.65896e-05	639
bin	1.66608e-05	635
bin	1.6732e-05	648
bin	1.68032e-05	594
bin	1.68744e-05	558
bin	1.69456e-05	539
bin	1.70168e-05	587
bin	1.7088e-05	524
bin	1.71592e-05	570
bin	1.72304e-05	554
bin	1.73016e-05	573
bin	1.73728e-05	544
bin	1.7444e-05	514
bin	1.75152e-05	508
bin	1.75864e-05	539
bin	1.76576e-05	534
bin	1.77288e-05	558
bin	1.78e-05	614
bin	1.78712e-05	592
bin	1.79424e-05	556
bin	1.80136e-05	564
bin	1.80848e-05	551
bin	1.8156e-05	544
bin	1.82272e-05	563
bin	1.82984e-05	535
bin	1.83696e-05	513
bin	1.84408e-05	470
bin	1.8512e-05	465
bin	1.85832e-05	464
bin	1.86544e-05	453
bin	1.87256e-05	472
bin	1.87968e-05	483
bin	1.8868e-05	499
bin	1.89392e-05	525
bin	1.90104e-05	507
bin	1.90816e-05	495
bin	1.91528e-05	520
bin	1.9224e-05	523
bin	1.92952e-05	504
bin	1.93664e-05	565
bin	1.94376e-05	527
bin	1.95088e-05	515
bin	1.958e-05	499
bin	1.96512e-05	522
bin	1.97224e-05	556
bin	1.97936e-05	535
bin	1.98648e-05	550
bin	1.9936e-05	530
bin	2.00072e-05	531
bin	2.00784e-05	516
bin	2.01496e-05	533
bin	2.02208e-05	463
bin	2.0292e-05	468
bin	2.03632e-05	487
bin	2.04344e-05	454
bin	2.05056e-05	437
bin	2.05768e-05	469
bin	2.0648e-05	489
bin	2.07192e-05	451
bin	2.07904e-05	491
bin	2.08616e-05	482
bin	2.09328e-05	511
bin	2.1004e-05	473
bin	2.10752e-05	558
bin	2.11464e-05	513
bin	2.12176e-05	519
bin	2.12888e-05	504
bin	2.136e-05	506
bin	2.14312e-05	472
bin	2.15024e-05	499
bin	2.15736e-05	499
bin	2.16448e-05	503
bin	2.1716e-05	473
bin	2.17872e-05	496
bin	2.18584e-05	506
bin	2.19296e-05	544
bin	2.20008e-05	518
bin	2.2072e-05	530
bin	2.21432e-05	536
bin	2.22144e-05	504
bin	2.22856e-05	543
bin	2.23568e-05	531
bin	2.2428e-05	531
bin	2.24992e-05	524
bin	2.25704e-05	499
bin	2.26416e-05	537
bin	2.27128e-05	551
bin	2.2784e-05	545
bin	2.28552e-05	523
bin	2.29264e-05	496
bin	2.29976e-05	521
bin	2.30688e-05	548
bin	2.314e-05	560
bin	2.32112e-05	543
bin	2.32824e-05	481
bin	2.33536e-05	509
bin	2.34248e-05	489
bin	2.3496e-05	521
bin	2.35672e-05	508
bin	2.36384e-05	510
bin	2.37096e-05	485
bin	2.37808e-05	509
bin	2.3852e-05	483
bin	2.39232e-05	462
bin	2.39944e-05	497
bin	2.40656e-05	501
bin	2.41368e-05	482
bin	2.4208e-05	462
bin	2.42792e-05	506
bin	2.43504e-05	474
bin	2.44216e-05	494
bin	2.44928e-05	487
bin	2.4564e-05	513
bin	2.46352e-05	511
bin	2.47064e-05	475
bin	2.47776e-05	535
bin	2.48488e-05	499
bin	2.492e-05	528
bin	2.49912e-05	545
bin	2.50624e-05	550
bin	2.51336e-05	531
bin	2.52048e-05	532
bin	2.5276e-05	537
bin	2.53472e-05	551
bin	2.54184e-05	583
bin	2.54896e-05	578
bin	2.55608e-05	579
bin	2.5632e-05	559
bin	2.57032e-05	502
bin	2.57744e-05	476
bin	2.58456e-05	475
bin	2.59168e-05	441
bin	2.5988e-05	457
bin	2.60592e-05	452
bin	2.61304e-05	439
bin	2.62016e-05	457
bin	2.62728e-05	446
bin	2.6344e-05	462
bin	2.64152e-05	463
bin	2.64864e-05	489
bin	2.65576e-05	511
bin	2.66288e-05	524
bin	2.67e-05	512
bin	2.67712e-05	487
bin	2.68424e-05	490
bin	2.69136e-05	461
bin	2.69848e-05	459
bin	2.7056e-05	451
bin	2.71272e-05	457
bin	2.71984e-05	460
bin	2.72696e-05	400
bin	2.73408e-05	430
bin	2.7412e-05	391
bin	2.74832e-05	446
bin	2.75544e-05	419
bin	2.76256e-05	460
bin	2.76968e-05	430
bin	2.7768e-05	422
bin	2.78392e-05	387
bin	2.79104e-05	443
bin	2.79816e-05	426
bin	2.80528e-05	456
bin	2.8124e-05	432
bin	2.81952e-05	434
bin	2.82664e-05	469
bin	2.83376e-05	454
bin	2.84088e-05	488
bin	2.848e-05	465
bin	2.85512e-05	413
bin	2.86224e-05	435
bin	2.86936e-05	429
bin	2.87648e-05	451
bin	2.8836e-05	476
bin	2.89072e-05	466
bin	2.89784e-05	448
bin	2.90496e-05	464
bin	2.91208e-05	456
bin	2.9192e-05	471
bin	2.92632e-05	441
bin	2.93344e-05	427
bin	2.94056e-05	437
bin	2.94768e-05	413
bin	2.9548e-05	451
bin	2.96192e-05	419
bin	2.96904e-05	429
bin	2.97616e-05	429
bin	2.98328e-05	464
bin	2.9904e-05	453
bin	2.99752e-05	454
bin	3.00464e-05	442
bin	3.01176e-05	429
bin	3.01888e-05	413
bin	3.026e-05	417
bin	3.03312e-05	396
bin	3.04024e-05	401
bin	3.04736e-05	432
bin	3.05448e-05	444
bin	3.0616e-05	477
bin	3.06872e-05	450
bin	3.07584e-05	490
bin	3.08296e-05	478
bin	3.09008e-05	525
bin	3.0972e-05	469
bin	3.10432e-05	460
bin	3.11144e-05	437
bin	3.11856e-05	430
bin	3.12568e-05	417
bin	3.1328e-05	422
bin	3.13992e-05	392
bin	3.14704e-05	383
bin	3.15416e-05	413
bin	3.16128e-05	417
bin	3.1684e-05	444
bin	3.17552e-05	464
bin	3.18264e-05	451
bin	3.18976e-05	470
bin	3.19688e-05	449
bin	3.204e-05	472
bin	3.21112e-05	467
bin	3.21824e-05	472
bin	3.22536e-05	393
bin	3.23248e-05	437
bin	3.2396e-05	449
bin	3.24672e-05	462
bin	3.25384e-05	440
bin	3.26096e-05	434
bin	3.26808e-05	459
bin	3.2752e-05	408
bin	3.28232e-05	416
bin	3.28944e-05	385
bin	3.29656e-05	428
bin	3.30368e-05	465
bin	3.3108e-05	446
bin	3.31792e-05	400
bin	3.32504e-05	405
bin	3.33216e-05	438
bin	3.33928e-05	412
bin	3.3464e-05	412
bin	3.35352e-05	416
bin	3.36064e-05	421
bin	3.36776e-05	427
bin	3.37488e-05	393
bin	3.382e-05	399
bin	3.38912e-05	413
bin	3.39624e-05	414
bin	3.40336e-05	433
bin	3.41048e-05	445
bin	3.4176e-05	414
bin	3.42472e-05	436
bin	3.43184e-05	422
bin	3.43896e-05	402
bin	3.44608e-05	425
bin	3.4532e-05	410
bin	3.46032e-05	415
bin	3.46744e-05	350
bin	3.47456e-05	366
bin	3.48168e-05	407
bin	3.4888e-05	383
bin	3.49592e-05	375
bin	3.50304e-05	356
bin	3.51016e-05	383
bin	3.51728e-05	417
bin	3.5244e-05	439
bin	3.53152e-05	437
bin	3.53864e-05	420
bin	3.54576e-05	432
bin	3.55288e-05	418
bin	3.56e-05	5777402
statistic Torus3d_bub.timer 	"Life Times"
field count 6291456
field mean 0.0063322249404661
field stddev 0.0033607627746038
field sum 39838.914595045
field sqrsum 323.32923165365
field min 1.463666666e-06
field max 0.014102213311757
bin	-INF	0
bin	0	0
bin	8.544e-07	17
bin	1.7088e-06	117
bin	2.5632e-06	262
bin	3.4176e-06	566
bin	4.272e-06	862
bin	5.1264e-06	1054
bin	5.9808e-06	1260
bin	6.8352e-06	1400
bin	7.6896e-06	1593
bin	8.544e-06	1896
bin	9.3984e-06	2168
bin	1.02528e-05	2549
bin	1.11072e-05	2767
bin	1.19616e-05	2897
bin	1.2816e-05	3008
bin	1.36704e-05	3102
bin	1.45248e-05	3172
bin	1.53792e-05	3261
bin	1.62336e-05	3312
bin	1.7088e-05	3242
bin	1.79424e-05	3287
bin	1.87968e-05	3172
bin	1.96512e-05	3184
bin	2.05056e-05	3253
bin	2.136e-05	3344
bin	2.22144e-05	3408
bin	2.30688e-05	3351
bin	2.39232e-05	3453
bin	2.47776e-05	3595
bin	2.5632e-05	3589
bin	2.64864e-05	3725
bin	2.73408e-05	3898
bin	2.81952e-05	3833
bin	2.90496e-05	3894
bin	2.9904e-05	3902
bin	3.07584e-05	3999
bin	3.16128e-05	3971
bin	3.24672e-05	4062
bin	3.33216e-05	4106
bin	3.4176e-05	4229
bin	3.50304e-05	4153
bin	3.58848e-05	4154
bin	3.67392e-05	4235
bin	3.75936e-05	4298
bin	3.8448e-05	4288
bin	3.93024e-05	4300
bin	4.01568e-05	4434
bin	4.10112e-05	4355
bin	4.18656e-05	4162
bin	4.272e-05	3998
bin	4.35744e-05	3890
bin	4.44288e-05	3648
bin	4.52832e-05	3589
bin	4.61376e-05	3452
bin	4.6992e-05	3423
bin	4.78464e-05	3309
bin	4.87008e-05	3219
bin	4.95552e-05	2960
bin	5.04096e-05	2788
bin	5.1264e-05	2702
bin	5.21184e-05	2516
bin	5.29728e-05	2407
bin	5.38272e-05	2234
bin	5.46816e-05	2093
bin	5.5536e-05	1978
bin	5.63904e-05	1852
bin	5.72448e-05	1715
bin	5.80992e-05	1740
bin	5.89536e-05	1687
bin	5.9808e-05	1631
bin	6.06624e-05	1532
bin	6.15168e-05	1533
bin	6.23712e-05	1450
bin	6.32256e-05	1380
bin	6.408e-05	1387
bin	6.49344e-05	1329
bin	6.57888e-05	1279
bin	6.66432e-05	1298
bin	6.74976e-05	1289
bin	6.8352e-05	1242
bin	6.92064e-05	1207
bin	7.00608e-05	1203
bin	7.09152e-05	1118
bin	7.17696e-05	1167
bin	7.2624e-05	1180
bin	7.34784e-05	1170
bin	7.43328e-05	1206
bin	7.51872e-05	1192
bin	7.60416e-05	1209
bin	7.6896e-05	1175
bin	7.77504e-05	1229
bin	7.86048e-05	1172
bin	7.94592e-05	1170
bin	8.03136e-05	1204
bin	8.1168e-05	1137
bin	8.20224e-05	1155
bin	8.28768e-05	1171
bin	8.37312e-05	1132
bin	8.45856e-05	1094
bin	8.544e-05	1068
bin	8.62944e-05	1081
bin	8.71488e-05	1057
bin	8.80032e-05	1008
bin	8.88576e-05	1045
bin	8.9712e-05	988
bin	9.05664e-05	978
bin	9.14208e-05	944
bin	9.22752e-05	981
bin	9.31296e-05	944
bin	9.3984e-05	958
bin	9.48384e-05	954
bin	9.56928e-05	883
bin	9.65472e-05	888
bin	9.74016e-05	882
bin	9.8256e-05	829
bin	9.91104e-05	804
bin	9.99648e-05	808
bin	0.0001008192	805
bin	0.0001016736	828
bin	0.000102528	821
bin	0.0001033824	788
bin	0.0001042368	751
bin	0.0001050912	775
bin	0.0001059456	807
bin	0.0001068	774
bin	0.0001076544	841
bin	0.0001085088	843
bin	0.0001093632	844
bin	0.0001102176	817
bin	0.000111072	824
bin	0.0001119264	834
bin	0.0001127808	816
bin	0.0001136352	854
bin	0.0001144896	841
bin	0.000115344	836
bin	0.0001161984	820
bin	0.0001170528	811
bin	0.0001179072	776
bin	0.0001187616	833
bin	0.000119616	833
bin	0.0001204704	808
bin	0.0001213248	826
bin	0.0001221792	795
bin	0.0001230336	844
bin	0.000123888	783
bin	0.0001247424	752
bin	0.0001255968	755
bin	0.0001264512	753
bin	0.0001273056	731
bin	0.00012816	730
bin	0.0001290144	713
bin	0.0001298688	714
bin	0.0001307232	708
bin	0.0001315776	730
bin	0.000132432	712
bin	0.0001332864	707
bin	0.0001341408	761
bin	0.0001349952	762
bin	0.0001358496	782
bin	0.000136704	772
bin	0.0001375584	742
bin	0.0001384128	698
bin	0.0001392672	777
bin	0.0001401216	703
bin	0.000140976	707
bin	0.0001418304	712
bin	0.0001426848	710
bin	0.0001435392	694
bin	0.0001443936	749
bin	0.000145248	777
bin	0.0001461024	764
bin	0.0001469568	756
bin	0.0001478112	705
bin	0.0001486656	713
bin	0.00014952	706
bin	0.0001503744	647
bin	0.0001512288	609
bin	0.0001520832	574
bin	0.0001529376	558
bin	0.000153792	587
bin	0.0001546464	545
bin	0.0001555008	566
bin	0.0001563552	576
bin	0.0001572096	565
bin	0.000158064	589
bin	0.0001589184	552
bin	0.0001597728	536
bin	0.0001606272	561
bin	0.0001614816	525
bin	0.000162336	587
bin	0.0001631904	580
bin	0.0001640448	560
bin	0.0001648992	602
bin	0.0001657536	585
bin	0.000166608	616
bin	0.0001674624	578
bin	0.0001683168	608
bin	0.0001691712	612
bin	0.0001700256	624
bin	0.00017088	620
bin	0.0001717344	617
bin	0.0001725888	616
bin	0.0001734432	607
bin	0.0001742976	601
bin	0.000175152	588
bin	0.0001760064	562
bin	0.0001768608	554
bin	0.0001777152	551
bin	0.0001785696	525
bin	0.000179424	565
bin	0.0001802784	526
bin	0.0001811328	495
bin	0.0001819872	506
bin	0.0001828416	528
bin	0.000183696	516
bin	0.0001845504	487
bin	0.0001854048	509
bin	0.0001862592	485
bin	0.0001871136	453
bin	0.000187968	511
bin	0.0001888224	501
bin	0.0001896768	499
bin	0.0001905312	489
bin	0.0001913856	461
bin	0.00019224	475
bin	0.0001930944	477
bin	0.0001939488	486
bin	0.0001948032	481
bin	0.0001956576	493
bin	0.000196512	493
bin	0.0001973664	467
bin	0.0001982208	477
bin	0.0001990752	509
bin	0.0001999296	493
bin	0.000200784	488
bin	0.0002016384	516
bin	0.0002024928	503
bin	0.0002033472	498
bin	0.0002042016	502
bin	0.000205056	469
bin	0.0002059104	532
bin	0.0002067648	487
bin	0.0002076192	494
bin	0.0002084736	483
bin	0.000209328	505
bin	0.0002101824	440
bin	0.0002110368	450
bin	0.0002118912	499
bin	0.0002127456	497
bin	0.0002136	485
bin	0.0002144544	520
bin	0.0002153088	501
bin	0.0002161632	513
bin	0.0002170176	525
bin	0.000217872	523
bin	0.0002187264	494
bin	0.0002195808	496
bin	0.0002204352	494
bin	0.0002212896	536
bin	0.000222144	523
bin	0.0002229984	534
bin	0.0002238528	536
bin	0.0002247072	490
bin	0.0002255616	483
bin	0.000226416	468
bin	0.0002272704	477
bin	0.0002281248	467
bin	0.0002289792	493
bin	0.0002298336	447
bin	0.000230688	444
bin	0.0002315424	460
bin	0.0002323968	423
bin	0.0002332512	453
bin	0.0002341056	445
bin	0.00023496	468
bin	0.0002358144	449
bin	0.0002366688	436
bin	0.0002375232	489
bin	0.0002383776	456
bin	0.000239232	473
bin	0.0002400864	466
bin	0.0002409408	437
bin	0.0002417952	461
bin	0.0002426496	451
bin	0.000243504	508
bin	0.0002443584	477
bin	0.0002452128	506
bin	0.0002460672	534
bin	0.0002469216	491
bin	0.000247776	479
bin	0.0002486304	528
bin	0.0002494848	541
bin	0.0002503392	520
bin	0.0002511936	515
bin	0.000252048	540
bin	0.0002529024	508
bin	0.0002537568	493
bin	0.0002546112	480
bin	0.0002554656	497
bin	0.00025632	474
bin	0.0002571744	469
bin	0.0002580288	496
bin	0.0002588832	480
bin	0.0002597376	499
bin	0.000260592	473
bin	0.0002614464	491
bin	0.0002623008	482
bin	0.0002631552	472
bin	0.0002640096	463
bin	0.000264864	473
bin	0.0002657184	440
bin	0.0002665728	447
bin	0.0002674272	425
bin	0.0002682816	429
bin	0.000269136	419
bin	0.0002699904	427
bin	0.0002708448	407
bin	0.0002716992	418
bin	0.0002725536	401
bin	0.000273408	423
bin	0.0002742624	393
bin	0.0002751168	455
bin	0.0002759712	399
bin	0.0002768256	429
bin	0.00027768	424
bin	0.0002785344	413
bin	0.0002793888	442
bin	0.0002802432	405
bin	0.0002810976	460
bin	0.000281952	448
bin	0.0002828064	464
bin	0.0002836608	454
bin	0.0002845152	462
bin	0.0002853696	460
bin	0.000286224	420
bin	0.0002870784	408
bin	0.0002879328	429
bin	0.0002887872	436
bin	0.0002896416	459
bin	0.000290496	443
bin	0.0002913504	440
bin	0.0002922048	449
bin	0.0002930592	430
bin	0.0002939136	438
bin	0.000294768	417
bin	0.0002956224	402
bin	0.0002964768	407
bin	0.0002973312	403
bin	0.0002981856	418
bin	0.00029904	408
bin	0.0002998944	428
bin	0.0003007488	413
bin	0.0003016032	382
bin	0.0003024576	359
bin	0.000303312	360
bin	0.0003041664	353
bin	0.0003050208	372
bin	0.0003058752	359
bin	0.0003067296	340
bin	0.000307584	371
bin	0.0003084384	386
bin	0.0003092928	395
bin	0.0003101472	382
bin	0.0003110016	406
bin	0.000311856	379
bin	0.0003127104	383
bin	0.0003135648	379
bin	0.0003144192	385
bin	0.0003152736	383
bin	0.000316128	389
bin	0.0003169824	426
bin	0.0003178368	437
bin	0.0003186912	440
bin	0.0003195456	412
bin	0.0003204	445
bin	0.0003212544	419
bin	0.0003221088	431
bin	0.0003229632	389
bin	0.0003238176	425
bin	0.000324672	440
bin	0.0003255264	437
bin	0.0003263808	443
bin	0.0003272352	410
bin	0.0003280896	415
bin	0.000328944	418
bin	0.0003297984	423
bin	0.0003306528	403
bin	0.0003315072	401
bin	0.0003323616	397
bin	0.000333216	394
bin	0.0003340704	410
bin	0.0003349248	411
bin	0.0003357792	434
bin	0.0003366336	436
bin	0.000337488	444
bin	0.0003383424	437
bin	0.0003391968	418
bin	0.0003400512	432
bin	0.0003409056	417
bin	0.00034176	396
bin	0.0003426144	409
bin	0.0003434688	403
bin	0.0003443232	394
bin	0.0003451776	433
bin	0.000346032	400
bin	0.0003468864	401
bin	0.0003477408	353
bin	0.0003485952	341
bin	0.0003494496	343
bin	0.000350304	319
bin	0.0003511584	330
bin	0.0003520128	335
bin	0.0003528672	355
bin	0.0003537216	374
bin	0.000354576	367
bin	0.0003554304	376
bin	0.0003562848	393
bin	0.0003571392	377
bin	0.0003579936	388
bin	0.000358848	375
bin	0.0003597024	373
bin	0.0003605568	379
bin	0.0003614112	383
bin	0.0003622656	374
bin	0.00036312	389
bin	0.0003639744	421
bin	0.0003648288	419
bin	0.0003656832	385
bin	0.0003665376	350
bin	0.000367392	401
bin	0.0003682464	384
bin	0.0003691008	381
bin	0.0003699552	392
bin	0.0003708096	358
bin	0.000371664	405
bin	0.0003725184	413
bin	0.0003733728	408
bin	0.0003742272	407
bin	0.0003750816	448
bin	0.000375936	413
bin	0.0003767904	375
bin	0.0003776448	356
bin	0.0003784992	345
bin	0.0003793536	361
bin	0.000380208	340
bin	0.0003810624	364
bin	0.0003819168	368
bin	0.0003827712	359
bin	0.0003836256	345
bin	0.00038448	344
bin	0.0003853344	325
bin	0.0003861888	350
bin	0.0003870432	317
bin	0.0003878976	331
bin	0.000388752	299
bin	0.0003896064	294
bin	0.0003904608	320
bin	0.0003913152	322
bin	0.0003921696	314
bin	0.000393024	333
bin	0.0003938784	285
bin	0.0003947328	307
bin	0.0003955872	312
bin	0.0003964416	323
bin	0.000397296	340
bin	0.0003981504	350
bin	0.0003990048	348
bin	0.0003998592	383
bin	0.0004007136	367
bin	0.000401568	358
bin	0.0004024224	347
bin	0.0004032768	324
bin	0.0004041312	317
bin	0.0004049856	308
bin	0.00040584	318
bin	0.0004066944	308
bin	0.0004075488	359
bin	0.0004084032	339
bin	0.0004092576	335
bin	0.000410112	319
bin	0.0004109664	323
bin	0.0004118208	303
bin	0.0004126752	306
bin	0.0004135296	296
bin	0.000414384	305
bin	0.0004152384	286
bin	0.0004160928	293
bin	0.0004169472	309
bin	0.0004178016	287
bin	0.000418656	259
bin	0.0004195104	280
bin	0.0004203648	280
bin	0.0004212192	294
bin	0.0004220736	305
bin	0.000422928	304
bin	0.0004237824	302
bin	0.0004246368	294
bin	0.0004254912	319
bin	0.0004263456	329
bin	0.0004272	5845493
