version 2
run Bitcomplement-45-20120709-21:57:54-24937
attr alg 1
attr buf 8
attr configname Bitcomplement
attr datetime 20120709-21:57:54
attr delta 0.6
attr experiment Bitcomplement
attr ext false
attr inifile altro.ini
attr iterationvars "$buf=8, $ext=false, $ofedge=2, $delta=0.6, $alg=1"
attr iterationvars2 "$buf=8, $ext=false, $ofedge=2, $delta=0.6, $alg=1, $repetition=0"
attr measurement "$buf=8, $ext=false, $ofedge=2, $delta=0.6, $alg=1"
attr network Torus3d_bub
attr ofedge 2
attr processid 24937
attr repetition 0
attr replication #0
attr resultdir altro-results
attr runnumber 45
attr seedset 45

scalar . 	alg 	1
scalar . 	buf 	8
scalar . 	delta 	0.6
scalar . 	ofedge 	2
scalar Torus3d_bub.timer 	#endTime 	0.015732516309262
scalar Torus3d_bub.timer 	#totalHops 	110833719
scalar Torus3d_bub.timer 	#totalPacks 	6291456
scalar Torus3d_bub.timer 	#totalDerouted 	3646149
scalar Torus3d_bub.timer 	#totalOutFlanked 	3646149
scalar Torus3d_bub.timer 	#totalCQRed 	0
scalar Torus3d_bub.timer 	#LB 	0.000786432
scalar Torus3d_bub.timer 	#ratio 	0.049987680580824
statistic Torus3d_bub.timer 	"Hop Times"
field count 6291456
field mean 0.00049807292822617
field stddev 0.00039525298109751
field sum 3133.6039127261
field sqrsum 2.5436453248978
field min 4.16777777e-07
field max 0.004342564666666
bin	-INF	0
bin	0	0
bin	7.12e-08	0
bin	1.424e-07	0
bin	2.136e-07	0
bin	2.848e-07	0
bin	3.56e-07	16
bin	4.272e-07	124
bin	4.984e-07	1785
bin	5.696e-07	2157
bin	6.408e-07	2433
bin	7.12e-07	2790
bin	7.832e-07	3090
bin	8.544e-07	3410
bin	9.256e-07	3870
bin	9.968e-07	4013
bin	1.068e-06	4478
bin	1.1392e-06	4832
bin	1.2104e-06	4793
bin	1.2816e-06	5019
bin	1.3528e-06	4986
bin	1.424e-06	5104
bin	1.4952e-06	5046
bin	1.5664e-06	4981
bin	1.6376e-06	4722
bin	1.7088e-06	4669
bin	1.78e-06	4531
bin	1.8512e-06	4416
bin	1.9224e-06	4218
bin	1.9936e-06	4128
bin	2.0648e-06	4003
bin	2.136e-06	4024
bin	2.2072e-06	3821
bin	2.2784e-06	3759
bin	2.3496e-06	3662
bin	2.4208e-06	3509
bin	2.492e-06	3378
bin	2.5632e-06	3352
bin	2.6344e-06	3291
bin	2.7056e-06	3100
bin	2.7768e-06	3070
bin	2.848e-06	2917
bin	2.9192e-06	2873
bin	2.9904e-06	2793
bin	3.0616e-06	2618
bin	3.1328e-06	2546
bin	3.204e-06	2274
bin	3.2752e-06	2306
bin	3.3464e-06	2158
bin	3.4176e-06	2121
bin	3.4888e-06	1933
bin	3.56e-06	1937
bin	3.6312e-06	1909
bin	3.7024e-06	1818
bin	3.7736e-06	1818
bin	3.8448e-06	1700
bin	3.916e-06	1716
bin	3.9872e-06	1686
bin	4.0584e-06	1748
bin	4.1296e-06	1623
bin	4.2008e-06	1532
bin	4.272e-06	1526
bin	4.3432e-06	1505
bin	4.4144e-06	1419
bin	4.4856e-06	1446
bin	4.5568e-06	1377
bin	4.628e-06	1349
bin	4.6992e-06	1335
bin	4.7704e-06	1268
bin	4.8416e-06	1271
bin	4.9128e-06	1322
bin	4.984e-06	1284
bin	5.0552e-06	1256
bin	5.1264e-06	1158
bin	5.1976e-06	1175
bin	5.2688e-06	1128
bin	5.34e-06	1066
bin	5.4112e-06	1030
bin	5.4824e-06	977
bin	5.5536e-06	953
bin	5.6248e-06	925
bin	5.696e-06	963
bin	5.7672e-06	910
bin	5.8384e-06	898
bin	5.9096e-06	878
bin	5.9808e-06	907
bin	6.052e-06	949
bin	6.1232e-06	953
bin	6.1944e-06	936
bin	6.2656e-06	946
bin	6.3368e-06	915
bin	6.408e-06	869
bin	6.4792e-06	886
bin	6.5504e-06	864
bin	6.6216e-06	819
bin	6.6928e-06	826
bin	6.764e-06	826
bin	6.8352e-06	808
bin	6.9064e-06	762
bin	6.9776e-06	763
bin	7.0488e-06	759
bin	7.12e-06	754
bin	7.1912e-06	748
bin	7.2624e-06	774
bin	7.3336e-06	783
bin	7.4048e-06	768
bin	7.476e-06	765
bin	7.5472e-06	727
bin	7.6184e-06	785
bin	7.6896e-06	748
bin	7.7608e-06	730
bin	7.832e-06	743
bin	7.9032e-06	730
bin	7.9744e-06	677
bin	8.0456e-06	691
bin	8.1168e-06	644
bin	8.188e-06	682
bin	8.2592e-06	693
bin	8.3304e-06	708
bin	8.4016e-06	692
bin	8.4728e-06	728
bin	8.544e-06	717
bin	8.6152e-06	705
bin	8.6864e-06	698
bin	8.7576e-06	704
bin	8.8288e-06	652
bin	8.9e-06	724
bin	8.9712e-06	657
bin	9.0424e-06	707
bin	9.1136e-06	681
bin	9.1848e-06	696
bin	9.256e-06	628
bin	9.3272e-06	649
bin	9.3984e-06	668
bin	9.4696e-06	670
bin	9.5408e-06	654
bin	9.612e-06	620
bin	9.6832e-06	601
bin	9.7544e-06	612
bin	9.8256e-06	624
bin	9.8968e-06	651
bin	9.968e-06	657
bin	1.00392e-05	627
bin	1.01104e-05	636
bin	1.01816e-05	633
bin	1.02528e-05	613
bin	1.0324e-05	572
bin	1.03952e-05	586
bin	1.04664e-05	561
bin	1.05376e-05	546
bin	1.06088e-05	563
bin	1.068e-05	550
bin	1.07512e-05	572
bin	1.08224e-05	522
bin	1.08936e-05	535
bin	1.09648e-05	521
bin	1.1036e-05	563
bin	1.11072e-05	539
bin	1.11784e-05	516
bin	1.12496e-05	539
bin	1.13208e-05	545
bin	1.1392e-05	543
bin	1.14632e-05	581
bin	1.15344e-05	609
bin	1.16056e-05	600
bin	1.16768e-05	629
bin	1.1748e-05	622
bin	1.18192e-05	586
bin	1.18904e-05	599
bin	1.19616e-05	547
bin	1.20328e-05	595
bin	1.2104e-05	600
bin	1.21752e-05	567
bin	1.22464e-05	592
bin	1.23176e-05	539
bin	1.23888e-05	513
bin	1.246e-05	493
bin	1.25312e-05	529
bin	1.26024e-05	511
bin	1.26736e-05	488
bin	1.27448e-05	480
bin	1.2816e-05	495
bin	1.28872e-05	502
bin	1.29584e-05	515
bin	1.30296e-05	517
bin	1.31008e-05	489
bin	1.3172e-05	530
bin	1.32432e-05	517
bin	1.33144e-05	546
bin	1.33856e-05	590
bin	1.34568e-05	573
bin	1.3528e-05	541
bin	1.35992e-05	541
bin	1.36704e-05	517
bin	1.37416e-05	565
bin	1.38128e-05	555
bin	1.3884e-05	545
bin	1.39552e-05	527
bin	1.40264e-05	534
bin	1.40976e-05	495
bin	1.41688e-05	512
bin	1.424e-05	528
bin	1.43112e-05	535
bin	1.43824e-05	550
bin	1.44536e-05	552
bin	1.45248e-05	570
bin	1.4596e-05	535
bin	1.46672e-05	513
bin	1.47384e-05	492
bin	1.48096e-05	465
bin	1.48808e-05	535
bin	1.4952e-05	516
bin	1.50232e-05	513
bin	1.50944e-05	510
bin	1.51656e-05	492
bin	1.52368e-05	512
bin	1.5308e-05	490
bin	1.53792e-05	486
bin	1.54504e-05	482
bin	1.55216e-05	504
bin	1.55928e-05	505
bin	1.5664e-05	500
bin	1.57352e-05	478
bin	1.58064e-05	469
bin	1.58776e-05	471
bin	1.59488e-05	450
bin	1.602e-05	458
bin	1.60912e-05	477
bin	1.61624e-05	468
bin	1.62336e-05	478
bin	1.63048e-05	448
bin	1.6376e-05	441
bin	1.64472e-05	444
bin	1.65184e-05	454
bin	1.65896e-05	438
bin	1.66608e-05	441
bin	1.6732e-05	428
bin	1.68032e-05	446
bin	1.68744e-05	466
bin	1.69456e-05	467
bin	1.70168e-05	498
bin	1.7088e-05	480
bin	1.71592e-05	489
bin	1.72304e-05	468
bin	1.73016e-05	426
bin	1.73728e-05	466
bin	1.7444e-05	461
bin	1.75152e-05	485
bin	1.75864e-05	478
bin	1.76576e-05	486
bin	1.77288e-05	485
bin	1.78e-05	508
bin	1.78712e-05	493
bin	1.79424e-05	459
bin	1.80136e-05	484
bin	1.80848e-05	448
bin	1.8156e-05	417
bin	1.82272e-05	412
bin	1.82984e-05	434
bin	1.83696e-05	440
bin	1.84408e-05	406
bin	1.8512e-05	387
bin	1.85832e-05	393
bin	1.86544e-05	354
bin	1.87256e-05	382
bin	1.87968e-05	393
bin	1.8868e-05	372
bin	1.89392e-05	373
bin	1.90104e-05	389
bin	1.90816e-05	367
bin	1.91528e-05	357
bin	1.9224e-05	371
bin	1.92952e-05	419
bin	1.93664e-05	375
bin	1.94376e-05	371
bin	1.95088e-05	406
bin	1.958e-05	418
bin	1.96512e-05	402
bin	1.97224e-05	420
bin	1.97936e-05	399
bin	1.98648e-05	405
bin	1.9936e-05	363
bin	2.00072e-05	353
bin	2.00784e-05	382
bin	2.01496e-05	387
bin	2.02208e-05	354
bin	2.0292e-05	309
bin	2.03632e-05	346
bin	2.04344e-05	318
bin	2.05056e-05	331
bin	2.05768e-05	337
bin	2.0648e-05	331
bin	2.07192e-05	352
bin	2.07904e-05	334
bin	2.08616e-05	341
bin	2.09328e-05	321
bin	2.1004e-05	351
bin	2.10752e-05	333
bin	2.11464e-05	351
bin	2.12176e-05	357
bin	2.12888e-05	384
bin	2.136e-05	380
bin	2.14312e-05	380
bin	2.15024e-05	375
bin	2.15736e-05	354
bin	2.16448e-05	344
bin	2.1716e-05	354
bin	2.17872e-05	385
bin	2.18584e-05	366
bin	2.19296e-05	393
bin	2.20008e-05	413
bin	2.2072e-05	413
bin	2.21432e-05	358
bin	2.22144e-05	323
bin	2.22856e-05	389
bin	2.23568e-05	360
bin	2.2428e-05	331
bin	2.24992e-05	348
bin	2.25704e-05	324
bin	2.26416e-05	348
bin	2.27128e-05	346
bin	2.2784e-05	351
bin	2.28552e-05	365
bin	2.29264e-05	361
bin	2.29976e-05	379
bin	2.30688e-05	368
bin	2.314e-05	349
bin	2.32112e-05	354
bin	2.32824e-05	367
bin	2.33536e-05	389
bin	2.34248e-05	388
bin	2.3496e-05	405
bin	2.35672e-05	405
bin	2.36384e-05	392
bin	2.37096e-05	362
bin	2.37808e-05	370
bin	2.3852e-05	390
bin	2.39232e-05	380
bin	2.39944e-05	400
bin	2.40656e-05	390
bin	2.41368e-05	391
bin	2.4208e-05	389
bin	2.42792e-05	361
bin	2.43504e-05	370
bin	2.44216e-05	381
bin	2.44928e-05	371
bin	2.4564e-05	346
bin	2.46352e-05	357
bin	2.47064e-05	349
bin	2.47776e-05	405
bin	2.48488e-05	438
bin	2.492e-05	396
bin	2.49912e-05	384
bin	2.50624e-05	385
bin	2.51336e-05	369
bin	2.52048e-05	358
bin	2.5276e-05	365
bin	2.53472e-05	383
bin	2.54184e-05	353
bin	2.54896e-05	314
bin	2.55608e-05	334
bin	2.5632e-05	346
bin	2.57032e-05	335
bin	2.57744e-05	345
bin	2.58456e-05	338
bin	2.59168e-05	344
bin	2.5988e-05	341
bin	2.60592e-05	392
bin	2.61304e-05	377
bin	2.62016e-05	382
bin	2.62728e-05	364
bin	2.6344e-05	362
bin	2.64152e-05	355
bin	2.64864e-05	361
bin	2.65576e-05	359
bin	2.66288e-05	376
bin	2.67e-05	396
bin	2.67712e-05	386
bin	2.68424e-05	360
bin	2.69136e-05	359
bin	2.69848e-05	364
bin	2.7056e-05	343
bin	2.71272e-05	305
bin	2.71984e-05	322
bin	2.72696e-05	315
bin	2.73408e-05	311
bin	2.7412e-05	280
bin	2.74832e-05	317
bin	2.75544e-05	320
bin	2.76256e-05	387
bin	2.76968e-05	375
bin	2.7768e-05	387
bin	2.78392e-05	405
bin	2.79104e-05	393
bin	2.79816e-05	381
bin	2.80528e-05	400
bin	2.8124e-05	399
bin	2.81952e-05	346
bin	2.82664e-05	338
bin	2.83376e-05	358
bin	2.84088e-05	347
bin	2.848e-05	344
bin	2.85512e-05	326
bin	2.86224e-05	340
bin	2.86936e-05	280
bin	2.87648e-05	297
bin	2.8836e-05	306
bin	2.89072e-05	318
bin	2.89784e-05	341
bin	2.90496e-05	363
bin	2.91208e-05	368
bin	2.9192e-05	396
bin	2.92632e-05	324
bin	2.93344e-05	343
bin	2.94056e-05	332
bin	2.94768e-05	363
bin	2.9548e-05	339
bin	2.96192e-05	353
bin	2.96904e-05	359
bin	2.97616e-05	349
bin	2.98328e-05	383
bin	2.9904e-05	392
bin	2.99752e-05	401
bin	3.00464e-05	400
bin	3.01176e-05	384
bin	3.01888e-05	377
bin	3.026e-05	397
bin	3.03312e-05	422
bin	3.04024e-05	393
bin	3.04736e-05	411
bin	3.05448e-05	373
bin	3.0616e-05	363
bin	3.06872e-05	374
bin	3.07584e-05	369
bin	3.08296e-05	379
bin	3.09008e-05	358
bin	3.0972e-05	342
bin	3.10432e-05	380
bin	3.11144e-05	323
bin	3.11856e-05	356
bin	3.12568e-05	347
bin	3.1328e-05	327
bin	3.13992e-05	349
bin	3.14704e-05	386
bin	3.15416e-05	394
bin	3.16128e-05	389
bin	3.1684e-05	379
bin	3.17552e-05	371
bin	3.18264e-05	373
bin	3.18976e-05	345
bin	3.19688e-05	319
bin	3.204e-05	335
bin	3.21112e-05	357
bin	3.21824e-05	338
bin	3.22536e-05	312
bin	3.23248e-05	284
bin	3.2396e-05	328
bin	3.24672e-05	334
bin	3.25384e-05	342
bin	3.26096e-05	319
bin	3.26808e-05	325
bin	3.2752e-05	333
bin	3.28232e-05	370
bin	3.28944e-05	377
bin	3.29656e-05	358
bin	3.30368e-05	395
bin	3.3108e-05	379
bin	3.31792e-05	372
bin	3.32504e-05	350
bin	3.33216e-05	318
bin	3.33928e-05	338
bin	3.3464e-05	324
bin	3.35352e-05	329
bin	3.36064e-05	317
bin	3.36776e-05	289
bin	3.37488e-05	285
bin	3.382e-05	295
bin	3.38912e-05	306
bin	3.39624e-05	316
bin	3.40336e-05	299
bin	3.41048e-05	334
bin	3.4176e-05	313
bin	3.42472e-05	304
bin	3.43184e-05	325
bin	3.43896e-05	325
bin	3.44608e-05	334
bin	3.4532e-05	350
bin	3.46032e-05	369
bin	3.46744e-05	349
bin	3.47456e-05	341
bin	3.48168e-05	300
bin	3.4888e-05	283
bin	3.49592e-05	274
bin	3.50304e-05	288
bin	3.51016e-05	289
bin	3.51728e-05	274
bin	3.5244e-05	275
bin	3.53152e-05	293
bin	3.53864e-05	292
bin	3.54576e-05	291
bin	3.55288e-05	278
bin	3.56e-05	5903491
statistic Torus3d_bub.timer 	"Life Times"
field count 6291456
field mean 0.0075104745935163
field stddev 0.0036918923408341
field sum 47251.820444226
field sqrsum 440.63656305842
field min 1.250333333e-06
field max 0.015643917309262
bin	-INF	0
bin	0	0
bin	8.544e-07	66
bin	1.7088e-06	121
bin	2.5632e-06	379
bin	3.4176e-06	782
bin	4.272e-06	1460
bin	5.1264e-06	1750
bin	5.9808e-06	2006
bin	6.8352e-06	2107
bin	7.6896e-06	2274
bin	8.544e-06	2443
bin	9.3984e-06	2645
bin	1.02528e-05	2867
bin	1.11072e-05	3007
bin	1.19616e-05	3110
bin	1.2816e-05	3136
bin	1.36704e-05	3162
bin	1.45248e-05	3208
bin	1.53792e-05	3223
bin	1.62336e-05	3228
bin	1.7088e-05	3131
bin	1.79424e-05	3018
bin	1.87968e-05	2977
bin	1.96512e-05	3042
bin	2.05056e-05	2807
bin	2.136e-05	2923
bin	2.22144e-05	2863
bin	2.30688e-05	2914
bin	2.39232e-05	2959
bin	2.47776e-05	3068
bin	2.5632e-05	3077
bin	2.64864e-05	3039
bin	2.73408e-05	3131
bin	2.81952e-05	3197
bin	2.90496e-05	3070
bin	2.9904e-05	3009
bin	3.07584e-05	2971
bin	3.16128e-05	2986
bin	3.24672e-05	2954
bin	3.33216e-05	3133
bin	3.4176e-05	3110
bin	3.50304e-05	3089
bin	3.58848e-05	3037
bin	3.67392e-05	2976
bin	3.75936e-05	3031
bin	3.8448e-05	2964
bin	3.93024e-05	2981
bin	4.01568e-05	2999
bin	4.10112e-05	2944
bin	4.18656e-05	2831
bin	4.272e-05	2585
bin	4.35744e-05	2466
bin	4.44288e-05	2436
bin	4.52832e-05	2265
bin	4.61376e-05	2059
bin	4.6992e-05	2043
bin	4.78464e-05	1805
bin	4.87008e-05	1813
bin	4.95552e-05	1722
bin	5.04096e-05	1565
bin	5.1264e-05	1455
bin	5.21184e-05	1341
bin	5.29728e-05	1256
bin	5.38272e-05	1145
bin	5.46816e-05	1135
bin	5.5536e-05	1085
bin	5.63904e-05	1145
bin	5.72448e-05	994
bin	5.80992e-05	1034
bin	5.89536e-05	945
bin	5.9808e-05	952
bin	6.06624e-05	915
bin	6.15168e-05	903
bin	6.23712e-05	876
bin	6.32256e-05	869
bin	6.408e-05	843
bin	6.49344e-05	901
bin	6.57888e-05	831
bin	6.66432e-05	811
bin	6.74976e-05	822
bin	6.8352e-05	854
bin	6.92064e-05	817
bin	7.00608e-05	801
bin	7.09152e-05	772
bin	7.17696e-05	790
bin	7.2624e-05	766
bin	7.34784e-05	781
bin	7.43328e-05	796
bin	7.51872e-05	760
bin	7.60416e-05	757
bin	7.6896e-05	828
bin	7.77504e-05	792
bin	7.86048e-05	767
bin	7.94592e-05	777
bin	8.03136e-05	745
bin	8.1168e-05	758
bin	8.20224e-05	732
bin	8.28768e-05	784
bin	8.37312e-05	752
bin	8.45856e-05	803
bin	8.544e-05	761
bin	8.62944e-05	718
bin	8.71488e-05	692
bin	8.80032e-05	644
bin	8.88576e-05	646
bin	8.9712e-05	636
bin	9.05664e-05	659
bin	9.14208e-05	574
bin	9.22752e-05	581
bin	9.31296e-05	607
bin	9.3984e-05	590
bin	9.48384e-05	582
bin	9.56928e-05	597
bin	9.65472e-05	612
bin	9.74016e-05	625
bin	9.8256e-05	604
bin	9.91104e-05	621
bin	9.99648e-05	587
bin	0.0001008192	583
bin	0.0001016736	562
bin	0.000102528	563
bin	0.0001033824	578
bin	0.0001042368	574
bin	0.0001050912	559
bin	0.0001059456	572
bin	0.0001068	585
bin	0.0001076544	551
bin	0.0001085088	540
bin	0.0001093632	600
bin	0.0001102176	571
bin	0.000111072	570
bin	0.0001119264	559
bin	0.0001127808	563
bin	0.0001136352	534
bin	0.0001144896	549
bin	0.000115344	550
bin	0.0001161984	520
bin	0.0001170528	523
bin	0.0001179072	575
bin	0.0001187616	591
bin	0.000119616	569
bin	0.0001204704	591
bin	0.0001213248	574
bin	0.0001221792	605
bin	0.0001230336	681
bin	0.000123888	680
bin	0.0001247424	673
bin	0.0001255968	611
bin	0.0001264512	639
bin	0.0001273056	626
bin	0.00012816	577
bin	0.0001290144	576
bin	0.0001298688	566
bin	0.0001307232	563
bin	0.0001315776	521
bin	0.000132432	541
bin	0.0001332864	535
bin	0.0001341408	517
bin	0.0001349952	472
bin	0.0001358496	511
bin	0.000136704	450
bin	0.0001375584	437
bin	0.0001384128	469
bin	0.0001392672	498
bin	0.0001401216	468
bin	0.000140976	473
bin	0.0001418304	486
bin	0.0001426848	474
bin	0.0001435392	465
bin	0.0001443936	467
bin	0.000145248	441
bin	0.0001461024	454
bin	0.0001469568	468
bin	0.0001478112	451
bin	0.0001486656	430
bin	0.00014952	481
bin	0.0001503744	464
bin	0.0001512288	456
bin	0.0001520832	503
bin	0.0001529376	491
bin	0.000153792	511
bin	0.0001546464	488
bin	0.0001555008	476
bin	0.0001563552	499
bin	0.0001572096	478
bin	0.000158064	489
bin	0.0001589184	480
bin	0.0001597728	460
bin	0.0001606272	486
bin	0.0001614816	481
bin	0.000162336	474
bin	0.0001631904	485
bin	0.0001640448	458
bin	0.0001648992	480
bin	0.0001657536	495
bin	0.000166608	496
bin	0.0001674624	506
bin	0.0001683168	484
bin	0.0001691712	454
bin	0.0001700256	439
bin	0.00017088	452
bin	0.0001717344	476
bin	0.0001725888	462
bin	0.0001734432	466
bin	0.0001742976	421
bin	0.000175152	437
bin	0.0001760064	424
bin	0.0001768608	423
bin	0.0001777152	436
bin	0.0001785696	424
bin	0.000179424	395
bin	0.0001802784	387
bin	0.0001811328	435
bin	0.0001819872	389
bin	0.0001828416	391
bin	0.000183696	378
bin	0.0001845504	378
bin	0.0001854048	446
bin	0.0001862592	428
bin	0.0001871136	440
bin	0.000187968	438
bin	0.0001888224	422
bin	0.0001896768	433
bin	0.0001905312	427
bin	0.0001913856	421
bin	0.00019224	422
bin	0.0001930944	447
bin	0.0001939488	441
bin	0.0001948032	442
bin	0.0001956576	422
bin	0.000196512	434
bin	0.0001973664	429
bin	0.0001982208	439
bin	0.0001990752	404
bin	0.0001999296	457
bin	0.000200784	425
bin	0.0002016384	434
bin	0.0002024928	440
bin	0.0002033472	434
bin	0.0002042016	465
bin	0.000205056	445
bin	0.0002059104	472
bin	0.0002067648	478
bin	0.0002076192	458
bin	0.0002084736	444
bin	0.000209328	471
bin	0.0002101824	448
bin	0.0002110368	389
bin	0.0002118912	385
bin	0.0002127456	401
bin	0.0002136	420
bin	0.0002144544	406
bin	0.0002153088	376
bin	0.0002161632	374
bin	0.0002170176	353
bin	0.000217872	357
bin	0.0002187264	351
bin	0.0002195808	342
bin	0.0002204352	354
bin	0.0002212896	344
bin	0.000222144	360
bin	0.0002229984	376
bin	0.0002238528	393
bin	0.0002247072	398
bin	0.0002255616	406
bin	0.000226416	419
bin	0.0002272704	413
bin	0.0002281248	424
bin	0.0002289792	416
bin	0.0002298336	431
bin	0.000230688	403
bin	0.0002315424	429
bin	0.0002323968	409
bin	0.0002332512	414
bin	0.0002341056	398
bin	0.00023496	400
bin	0.0002358144	362
bin	0.0002366688	368
bin	0.0002375232	378
bin	0.0002383776	371
bin	0.000239232	364
bin	0.0002400864	368
bin	0.0002409408	412
bin	0.0002417952	377
bin	0.0002426496	383
bin	0.000243504	372
bin	0.0002443584	352
bin	0.0002452128	347
bin	0.0002460672	364
bin	0.0002469216	358
bin	0.000247776	383
bin	0.0002486304	380
bin	0.0002494848	372
bin	0.0002503392	366
bin	0.0002511936	339
bin	0.000252048	354
bin	0.0002529024	380
bin	0.0002537568	383
bin	0.0002546112	384
bin	0.0002554656	389
bin	0.00025632	388
bin	0.0002571744	366
bin	0.0002580288	379
bin	0.0002588832	389
bin	0.0002597376	369
bin	0.000260592	381
bin	0.0002614464	360
bin	0.0002623008	385
bin	0.0002631552	401
bin	0.0002640096	394
bin	0.000264864	368
bin	0.0002657184	369
bin	0.0002665728	341
bin	0.0002674272	344
bin	0.0002682816	370
bin	0.000269136	346
bin	0.0002699904	346
bin	0.0002708448	361
bin	0.0002716992	343
bin	0.0002725536	345
bin	0.000273408	368
bin	0.0002742624	353
bin	0.0002751168	338
bin	0.0002759712	354
bin	0.0002768256	338
bin	0.00027768	338
bin	0.0002785344	380
bin	0.0002793888	356
bin	0.0002802432	353
bin	0.0002810976	352
bin	0.000281952	399
bin	0.0002828064	383
bin	0.0002836608	413
bin	0.0002845152	375
bin	0.0002853696	376
bin	0.000286224	359
bin	0.0002870784	341
bin	0.0002879328	361
bin	0.0002887872	347
bin	0.0002896416	369
bin	0.000290496	373
bin	0.0002913504	357
bin	0.0002922048	346
bin	0.0002930592	333
bin	0.0002939136	302
bin	0.000294768	321
bin	0.0002956224	323
bin	0.0002964768	343
bin	0.0002973312	337
bin	0.0002981856	346
bin	0.00029904	349
bin	0.0002998944	331
bin	0.0003007488	345
bin	0.0003016032	324
bin	0.0003024576	351
bin	0.000303312	350
bin	0.0003041664	319
bin	0.0003050208	293
bin	0.0003058752	311
bin	0.0003067296	315
bin	0.000307584	303
bin	0.0003084384	324
bin	0.0003092928	304
bin	0.0003101472	306
bin	0.0003110016	306
bin	0.000311856	297
bin	0.0003127104	316
bin	0.0003135648	311
bin	0.0003144192	275
bin	0.0003152736	273
bin	0.000316128	265
bin	0.0003169824	270
bin	0.0003178368	294
bin	0.0003186912	287
bin	0.0003195456	287
bin	0.0003204	290
bin	0.0003212544	286
bin	0.0003221088	296
bin	0.0003229632	291
bin	0.0003238176	265
bin	0.000324672	278
bin	0.0003255264	276
bin	0.0003263808	274
bin	0.0003272352	296
bin	0.0003280896	298
bin	0.000328944	278
bin	0.0003297984	281
bin	0.0003306528	310
bin	0.0003315072	303
bin	0.0003323616	311
bin	0.000333216	310
bin	0.0003340704	290
bin	0.0003349248	289
bin	0.0003357792	287
bin	0.0003366336	274
bin	0.000337488	294
bin	0.0003383424	283
bin	0.0003391968	272
bin	0.0003400512	264
bin	0.0003409056	269
bin	0.00034176	275
bin	0.0003426144	288
bin	0.0003434688	285
bin	0.0003443232	271
bin	0.0003451776	281
bin	0.000346032	302
bin	0.0003468864	296
bin	0.0003477408	261
bin	0.0003485952	297
bin	0.0003494496	282
bin	0.000350304	271
bin	0.0003511584	234
bin	0.0003520128	259
bin	0.0003528672	303
bin	0.0003537216	275
bin	0.000354576	268
bin	0.0003554304	302
bin	0.0003562848	289
bin	0.0003571392	293
bin	0.0003579936	309
bin	0.000358848	295
bin	0.0003597024	313
bin	0.0003605568	306
bin	0.0003614112	317
bin	0.0003622656	322
bin	0.00036312	308
bin	0.0003639744	307
bin	0.0003648288	315
bin	0.0003656832	291
bin	0.0003665376	311
bin	0.000367392	324
bin	0.0003682464	305
bin	0.0003691008	301
bin	0.0003699552	297
bin	0.0003708096	288
bin	0.000371664	291
bin	0.0003725184	310
bin	0.0003733728	301
bin	0.0003742272	329
bin	0.0003750816	300
bin	0.000375936	300
bin	0.0003767904	288
bin	0.0003776448	288
bin	0.0003784992	279
bin	0.0003793536	265
bin	0.000380208	305
bin	0.0003810624	272
bin	0.0003819168	257
bin	0.0003827712	257
bin	0.0003836256	276
bin	0.00038448	257
bin	0.0003853344	265
bin	0.0003861888	253
bin	0.0003870432	270
bin	0.0003878976	259
bin	0.000388752	263
bin	0.0003896064	274
bin	0.0003904608	264
bin	0.0003913152	248
bin	0.0003921696	267
bin	0.000393024	244
bin	0.0003938784	252
bin	0.0003947328	284
bin	0.0003955872	260
bin	0.0003964416	266
bin	0.000397296	264
bin	0.0003981504	271
bin	0.0003990048	275
bin	0.0003998592	242
bin	0.0004007136	260
bin	0.000401568	258
bin	0.0004024224	249
bin	0.0004032768	241
bin	0.0004041312	253
bin	0.0004049856	272
bin	0.00040584	265
bin	0.0004066944	249
bin	0.0004075488	232
bin	0.0004084032	268
bin	0.0004092576	266
bin	0.000410112	256
bin	0.0004109664	268
bin	0.0004118208	264
bin	0.0004126752	258
bin	0.0004135296	266
bin	0.000414384	282
bin	0.0004152384	232
bin	0.0004160928	253
bin	0.0004169472	279
bin	0.0004178016	272
bin	0.000418656	245
bin	0.0004195104	260
bin	0.0004203648	247
bin	0.0004212192	235
bin	0.0004220736	262
bin	0.000422928	274
bin	0.0004237824	249
bin	0.0004246368	220
bin	0.0004254912	233
bin	0.0004263456	224
bin	0.0004272	5948415
