version 2
run Bitcomplement-10-20120709-19:29:02-24879
attr alg 2
attr buf 8
attr configname Bitcomplement
attr datetime 20120709-19:29:02
attr delta 0.6
attr experiment Bitcomplement
attr ext true
attr inifile altro.ini
attr iterationvars "$buf=8, $ext=true, $ofedge=1, $delta=0.6, $alg=2"
attr iterationvars2 "$buf=8, $ext=true, $ofedge=1, $delta=0.6, $alg=2, $repetition=0"
attr measurement "$buf=8, $ext=true, $ofedge=1, $delta=0.6, $alg=2"
attr network Torus3d_bub
attr ofedge 1
attr processid 24879
attr repetition 0
attr replication #0
attr resultdir altro-results
attr runnumber 10
attr seedset 10

scalar . 	alg 	2
scalar . 	buf 	8
scalar . 	delta 	0.6
scalar . 	ofedge 	1
scalar Torus3d_bub.timer 	#endTime 	0.009878489651235
scalar Torus3d_bub.timer 	#totalHops 	122734682
scalar Torus3d_bub.timer 	#totalPacks 	6291456
scalar Torus3d_bub.timer 	#totalDerouted 	4810321
scalar Torus3d_bub.timer 	#totalOutFlanked 	0
scalar Torus3d_bub.timer 	#totalCQRed 	4810321
scalar Torus3d_bub.timer 	#LB 	0.000786432
scalar Torus3d_bub.timer 	#ratio 	0.079610550576594
statistic Torus3d_bub.timer 	"Hop Times"
field count 6291456
field mean 0.00022758269392122
field stddev 0.00026587527227811
field sum 1431.8265051668
field sqrsum 0.77059975070191
field min 4.36859649e-07
field max 0.003262277888888
bin	-INF	0
bin	0	0
bin	7.12e-08	0
bin	1.424e-07	0
bin	2.136e-07	0
bin	2.848e-07	0
bin	3.56e-07	0
bin	4.272e-07	59
bin	4.984e-07	703
bin	5.696e-07	1820
bin	6.408e-07	2360
bin	7.12e-07	4097
bin	7.832e-07	6286
bin	8.544e-07	8487
bin	9.256e-07	10592
bin	9.968e-07	11960
bin	1.068e-06	13301
bin	1.1392e-06	14424
bin	1.2104e-06	15387
bin	1.2816e-06	16249
bin	1.3528e-06	17270
bin	1.424e-06	17548
bin	1.4952e-06	18549
bin	1.5664e-06	18761
bin	1.6376e-06	19382
bin	1.7088e-06	19803
bin	1.78e-06	19987
bin	1.8512e-06	20119
bin	1.9224e-06	19899
bin	1.9936e-06	20210
bin	2.0648e-06	20024
bin	2.136e-06	20055
bin	2.2072e-06	19845
bin	2.2784e-06	19609
bin	2.3496e-06	19458
bin	2.4208e-06	18826
bin	2.492e-06	18565
bin	2.5632e-06	17665
bin	2.6344e-06	16506
bin	2.7056e-06	16122
bin	2.7768e-06	15647
bin	2.848e-06	14667
bin	2.9192e-06	14041
bin	2.9904e-06	13292
bin	3.0616e-06	12691
bin	3.1328e-06	12210
bin	3.204e-06	11662
bin	3.2752e-06	11451
bin	3.3464e-06	11010
bin	3.4176e-06	10432
bin	3.4888e-06	10246
bin	3.56e-06	9988
bin	3.6312e-06	9542
bin	3.7024e-06	9258
bin	3.7736e-06	8984
bin	3.8448e-06	8712
bin	3.916e-06	8348
bin	3.9872e-06	8077
bin	4.0584e-06	7926
bin	4.1296e-06	7604
bin	4.2008e-06	7413
bin	4.272e-06	7091
bin	4.3432e-06	6801
bin	4.4144e-06	6610
bin	4.4856e-06	6460
bin	4.5568e-06	6365
bin	4.628e-06	6234
bin	4.6992e-06	5847
bin	4.7704e-06	5738
bin	4.8416e-06	5609
bin	4.9128e-06	5488
bin	4.984e-06	5473
bin	5.0552e-06	5131
bin	5.1264e-06	5170
bin	5.1976e-06	5022
bin	5.2688e-06	4952
bin	5.34e-06	4980
bin	5.4112e-06	4644
bin	5.4824e-06	4568
bin	5.5536e-06	4479
bin	5.6248e-06	4297
bin	5.696e-06	4198
bin	5.7672e-06	4233
bin	5.8384e-06	4076
bin	5.9096e-06	3985
bin	5.9808e-06	4011
bin	6.052e-06	3984
bin	6.1232e-06	3701
bin	6.1944e-06	3830
bin	6.2656e-06	3695
bin	6.3368e-06	3602
bin	6.408e-06	3466
bin	6.4792e-06	3434
bin	6.5504e-06	3368
bin	6.6216e-06	3272
bin	6.6928e-06	3336
bin	6.764e-06	3199
bin	6.8352e-06	3127
bin	6.9064e-06	3074
bin	6.9776e-06	2985
bin	7.0488e-06	3011
bin	7.12e-06	3001
bin	7.1912e-06	2831
bin	7.2624e-06	2783
bin	7.3336e-06	2742
bin	7.4048e-06	2653
bin	7.476e-06	2759
bin	7.5472e-06	2553
bin	7.6184e-06	2699
bin	7.6896e-06	2669
bin	7.7608e-06	2565
bin	7.832e-06	2573
bin	7.9032e-06	2504
bin	7.9744e-06	2466
bin	8.0456e-06	2500
bin	8.1168e-06	2408
bin	8.188e-06	2478
bin	8.2592e-06	2407
bin	8.3304e-06	2427
bin	8.4016e-06	2378
bin	8.4728e-06	2362
bin	8.544e-06	2267
bin	8.6152e-06	2348
bin	8.6864e-06	2206
bin	8.7576e-06	2222
bin	8.8288e-06	2226
bin	8.9e-06	2202
bin	8.9712e-06	2206
bin	9.0424e-06	2056
bin	9.1136e-06	2003
bin	9.1848e-06	1979
bin	9.256e-06	2038
bin	9.3272e-06	1956
bin	9.3984e-06	2004
bin	9.4696e-06	1989
bin	9.5408e-06	1958
bin	9.612e-06	1920
bin	9.6832e-06	1950
bin	9.7544e-06	1900
bin	9.8256e-06	1946
bin	9.8968e-06	1906
bin	9.968e-06	1874
bin	1.00392e-05	1861
bin	1.01104e-05	1777
bin	1.01816e-05	1761
bin	1.02528e-05	1771
bin	1.0324e-05	1759
bin	1.03952e-05	1782
bin	1.04664e-05	1776
bin	1.05376e-05	1763
bin	1.06088e-05	1818
bin	1.068e-05	1717
bin	1.07512e-05	1672
bin	1.08224e-05	1703
bin	1.08936e-05	1640
bin	1.09648e-05	1676
bin	1.1036e-05	1626
bin	1.11072e-05	1607
bin	1.11784e-05	1556
bin	1.12496e-05	1540
bin	1.13208e-05	1666
bin	1.1392e-05	1572
bin	1.14632e-05	1617
bin	1.15344e-05	1589
bin	1.16056e-05	1559
bin	1.16768e-05	1624
bin	1.1748e-05	1536
bin	1.18192e-05	1485
bin	1.18904e-05	1549
bin	1.19616e-05	1476
bin	1.20328e-05	1478
bin	1.2104e-05	1520
bin	1.21752e-05	1542
bin	1.22464e-05	1512
bin	1.23176e-05	1487
bin	1.23888e-05	1545
bin	1.246e-05	1540
bin	1.25312e-05	1495
bin	1.26024e-05	1424
bin	1.26736e-05	1409
bin	1.27448e-05	1392
bin	1.2816e-05	1433
bin	1.28872e-05	1439
bin	1.29584e-05	1477
bin	1.30296e-05	1436
bin	1.31008e-05	1463
bin	1.3172e-05	1434
bin	1.32432e-05	1466
bin	1.33144e-05	1478
bin	1.33856e-05	1427
bin	1.34568e-05	1427
bin	1.3528e-05	1368
bin	1.35992e-05	1346
bin	1.36704e-05	1349
bin	1.37416e-05	1396
bin	1.38128e-05	1374
bin	1.3884e-05	1315
bin	1.39552e-05	1394
bin	1.40264e-05	1371
bin	1.40976e-05	1389
bin	1.41688e-05	1291
bin	1.424e-05	1280
bin	1.43112e-05	1279
bin	1.43824e-05	1312
bin	1.44536e-05	1295
bin	1.45248e-05	1271
bin	1.4596e-05	1248
bin	1.46672e-05	1219
bin	1.47384e-05	1256
bin	1.48096e-05	1227
bin	1.48808e-05	1242
bin	1.4952e-05	1250
bin	1.50232e-05	1282
bin	1.50944e-05	1293
bin	1.51656e-05	1256
bin	1.52368e-05	1265
bin	1.5308e-05	1298
bin	1.53792e-05	1291
bin	1.54504e-05	1282
bin	1.55216e-05	1150
bin	1.55928e-05	1207
bin	1.5664e-05	1240
bin	1.57352e-05	1269
bin	1.58064e-05	1193
bin	1.58776e-05	1254
bin	1.59488e-05	1263
bin	1.602e-05	1216
bin	1.60912e-05	1264
bin	1.61624e-05	1247
bin	1.62336e-05	1191
bin	1.63048e-05	1244
bin	1.6376e-05	1236
bin	1.64472e-05	1169
bin	1.65184e-05	1189
bin	1.65896e-05	1147
bin	1.66608e-05	1155
bin	1.6732e-05	1240
bin	1.68032e-05	1181
bin	1.68744e-05	1188
bin	1.69456e-05	1133
bin	1.70168e-05	1112
bin	1.7088e-05	1106
bin	1.71592e-05	1135
bin	1.72304e-05	1180
bin	1.73016e-05	1121
bin	1.73728e-05	1192
bin	1.7444e-05	1190
bin	1.75152e-05	1237
bin	1.75864e-05	1182
bin	1.76576e-05	1200
bin	1.77288e-05	1178
bin	1.78e-05	1122
bin	1.78712e-05	1106
bin	1.79424e-05	1158
bin	1.80136e-05	1179
bin	1.80848e-05	1197
bin	1.8156e-05	1113
bin	1.82272e-05	1134
bin	1.82984e-05	1114
bin	1.83696e-05	1148
bin	1.84408e-05	1096
bin	1.8512e-05	1171
bin	1.85832e-05	1090
bin	1.86544e-05	1129
bin	1.87256e-05	1078
bin	1.87968e-05	1090
bin	1.8868e-05	1060
bin	1.89392e-05	1084
bin	1.90104e-05	1067
bin	1.90816e-05	1061
bin	1.91528e-05	1021
bin	1.9224e-05	993
bin	1.92952e-05	981
bin	1.93664e-05	980
bin	1.94376e-05	994
bin	1.95088e-05	1027
bin	1.958e-05	1090
bin	1.96512e-05	1056
bin	1.97224e-05	1066
bin	1.97936e-05	1025
bin	1.98648e-05	1042
bin	1.9936e-05	1033
bin	2.00072e-05	1072
bin	2.00784e-05	1060
bin	2.01496e-05	1103
bin	2.02208e-05	1034
bin	2.0292e-05	1045
bin	2.03632e-05	1078
bin	2.04344e-05	1016
bin	2.05056e-05	1058
bin	2.05768e-05	1039
bin	2.0648e-05	1064
bin	2.07192e-05	1041
bin	2.07904e-05	1011
bin	2.08616e-05	988
bin	2.09328e-05	1079
bin	2.1004e-05	1073
bin	2.10752e-05	975
bin	2.11464e-05	1004
bin	2.12176e-05	922
bin	2.12888e-05	964
bin	2.136e-05	970
bin	2.14312e-05	1013
bin	2.15024e-05	1017
bin	2.15736e-05	949
bin	2.16448e-05	976
bin	2.1716e-05	1011
bin	2.17872e-05	1013
bin	2.18584e-05	1076
bin	2.19296e-05	1010
bin	2.20008e-05	1037
bin	2.2072e-05	961
bin	2.21432e-05	899
bin	2.22144e-05	878
bin	2.22856e-05	884
bin	2.23568e-05	910
bin	2.2428e-05	928
bin	2.24992e-05	896
bin	2.25704e-05	848
bin	2.26416e-05	853
bin	2.27128e-05	897
bin	2.2784e-05	896
bin	2.28552e-05	881
bin	2.29264e-05	916
bin	2.29976e-05	917
bin	2.30688e-05	910
bin	2.314e-05	888
bin	2.32112e-05	935
bin	2.32824e-05	957
bin	2.33536e-05	929
bin	2.34248e-05	916
bin	2.3496e-05	914
bin	2.35672e-05	897
bin	2.36384e-05	907
bin	2.37096e-05	866
bin	2.37808e-05	918
bin	2.3852e-05	905
bin	2.39232e-05	920
bin	2.39944e-05	874
bin	2.40656e-05	890
bin	2.41368e-05	914
bin	2.4208e-05	965
bin	2.42792e-05	955
bin	2.43504e-05	955
bin	2.44216e-05	956
bin	2.44928e-05	868
bin	2.4564e-05	859
bin	2.46352e-05	869
bin	2.47064e-05	868
bin	2.47776e-05	873
bin	2.48488e-05	891
bin	2.492e-05	837
bin	2.49912e-05	907
bin	2.50624e-05	852
bin	2.51336e-05	856
bin	2.52048e-05	830
bin	2.5276e-05	851
bin	2.53472e-05	827
bin	2.54184e-05	836
bin	2.54896e-05	811
bin	2.55608e-05	841
bin	2.5632e-05	871
bin	2.57032e-05	914
bin	2.57744e-05	850
bin	2.58456e-05	819
bin	2.59168e-05	843
bin	2.5988e-05	842
bin	2.60592e-05	922
bin	2.61304e-05	879
bin	2.62016e-05	870
bin	2.62728e-05	874
bin	2.6344e-05	839
bin	2.64152e-05	826
bin	2.64864e-05	929
bin	2.65576e-05	880
bin	2.66288e-05	856
bin	2.67e-05	913
bin	2.67712e-05	858
bin	2.68424e-05	841
bin	2.69136e-05	837
bin	2.69848e-05	796
bin	2.7056e-05	839
bin	2.71272e-05	789
bin	2.71984e-05	797
bin	2.72696e-05	889
bin	2.73408e-05	841
bin	2.7412e-05	844
bin	2.74832e-05	894
bin	2.75544e-05	857
bin	2.76256e-05	854
bin	2.76968e-05	830
bin	2.7768e-05	910
bin	2.78392e-05	824
bin	2.79104e-05	789
bin	2.79816e-05	793
bin	2.80528e-05	755
bin	2.8124e-05	766
bin	2.81952e-05	792
bin	2.82664e-05	858
bin	2.83376e-05	802
bin	2.84088e-05	852
bin	2.848e-05	761
bin	2.85512e-05	793
bin	2.86224e-05	794
bin	2.86936e-05	833
bin	2.87648e-05	803
bin	2.8836e-05	824
bin	2.89072e-05	823
bin	2.89784e-05	834
bin	2.90496e-05	793
bin	2.91208e-05	829
bin	2.9192e-05	769
bin	2.92632e-05	828
bin	2.93344e-05	890
bin	2.94056e-05	827
bin	2.94768e-05	796
bin	2.9548e-05	835
bin	2.96192e-05	803
bin	2.96904e-05	854
bin	2.97616e-05	812
bin	2.98328e-05	820
bin	2.9904e-05	846
bin	2.99752e-05	820
bin	3.00464e-05	811
bin	3.01176e-05	816
bin	3.01888e-05	857
bin	3.026e-05	892
bin	3.03312e-05	844
bin	3.04024e-05	815
bin	3.04736e-05	815
bin	3.05448e-05	801
bin	3.0616e-05	886
bin	3.06872e-05	887
bin	3.07584e-05	829
bin	3.08296e-05	811
bin	3.09008e-05	835
bin	3.0972e-05	836
bin	3.10432e-05	781
bin	3.11144e-05	855
bin	3.11856e-05	828
bin	3.12568e-05	844
bin	3.1328e-05	835
bin	3.13992e-05	797
bin	3.14704e-05	805
bin	3.15416e-05	759
bin	3.16128e-05	758
bin	3.1684e-05	756
bin	3.17552e-05	751
bin	3.18264e-05	740
bin	3.18976e-05	764
bin	3.19688e-05	764
bin	3.204e-05	786
bin	3.21112e-05	785
bin	3.21824e-05	752
bin	3.22536e-05	744
bin	3.23248e-05	754
bin	3.2396e-05	810
bin	3.24672e-05	738
bin	3.25384e-05	789
bin	3.26096e-05	773
bin	3.26808e-05	754
bin	3.2752e-05	755
bin	3.28232e-05	810
bin	3.28944e-05	760
bin	3.29656e-05	784
bin	3.30368e-05	755
bin	3.3108e-05	736
bin	3.31792e-05	731
bin	3.32504e-05	721
bin	3.33216e-05	733
bin	3.33928e-05	682
bin	3.3464e-05	740
bin	3.35352e-05	706
bin	3.36064e-05	777
bin	3.36776e-05	771
bin	3.37488e-05	755
bin	3.382e-05	745
bin	3.38912e-05	754
bin	3.39624e-05	739
bin	3.40336e-05	691
bin	3.41048e-05	747
bin	3.4176e-05	735
bin	3.42472e-05	676
bin	3.43184e-05	685
bin	3.43896e-05	680
bin	3.44608e-05	662
bin	3.4532e-05	666
bin	3.46032e-05	757
bin	3.46744e-05	745
bin	3.47456e-05	770
bin	3.48168e-05	773
bin	3.4888e-05	754
bin	3.49592e-05	710
bin	3.50304e-05	711
bin	3.51016e-05	737
bin	3.51728e-05	672
bin	3.5244e-05	689
bin	3.53152e-05	736
bin	3.53864e-05	671
bin	3.54576e-05	737
bin	3.55288e-05	690
bin	3.56e-05	4935677
statistic Torus3d_bub.timer 	"Life Times"
field count 6291456
field mean 0.0036915511411681
field stddev 0.0027339743261596
field sum 23225.231576409
field sqrsum 132.76333792078
field min 1.463666666e-06
field max 0.009791585333333
bin	-INF	0
bin	0	0
bin	8.544e-07	16
bin	1.7088e-06	104
bin	2.5632e-06	197
bin	3.4176e-06	404
bin	4.272e-06	551
bin	5.1264e-06	708
bin	5.9808e-06	754
bin	6.8352e-06	951
bin	7.6896e-06	1144
bin	8.544e-06	1405
bin	9.3984e-06	1659
bin	1.02528e-05	2162
bin	1.11072e-05	2525
bin	1.19616e-05	3048
bin	1.2816e-05	3390
bin	1.36704e-05	4007
bin	1.45248e-05	4402
bin	1.53792e-05	4897
bin	1.62336e-05	5242
bin	1.7088e-05	5550
bin	1.79424e-05	5798
bin	1.87968e-05	6131
bin	1.96512e-05	6330
bin	2.05056e-05	6579
bin	2.136e-05	6918
bin	2.22144e-05	6918
bin	2.30688e-05	7431
bin	2.39232e-05	7692
bin	2.47776e-05	8018
bin	2.5632e-05	8319
bin	2.64864e-05	8776
bin	2.73408e-05	9271
bin	2.81952e-05	9476
bin	2.90496e-05	9774
bin	2.9904e-05	10129
bin	3.07584e-05	10504
bin	3.16128e-05	10783
bin	3.24672e-05	10946
bin	3.33216e-05	11337
bin	3.4176e-05	11475
bin	3.50304e-05	11603
bin	3.58848e-05	11793
bin	3.67392e-05	12008
bin	3.75936e-05	12108
bin	3.8448e-05	12103
bin	3.93024e-05	12423
bin	4.01568e-05	12665
bin	4.10112e-05	12542
bin	4.18656e-05	12280
bin	4.272e-05	12294
bin	4.35744e-05	11864
bin	4.44288e-05	11726
bin	4.52832e-05	12145
bin	4.61376e-05	12108
bin	4.6992e-05	11887
bin	4.78464e-05	11980
bin	4.87008e-05	11878
bin	4.95552e-05	11944
bin	5.04096e-05	11799
bin	5.1264e-05	11732
bin	5.21184e-05	11526
bin	5.29728e-05	11438
bin	5.38272e-05	11200
bin	5.46816e-05	10776
bin	5.5536e-05	10455
bin	5.63904e-05	10055
bin	5.72448e-05	9724
bin	5.80992e-05	9346
bin	5.89536e-05	9205
bin	5.9808e-05	8689
bin	6.06624e-05	8396
bin	6.15168e-05	8275
bin	6.23712e-05	7949
bin	6.32256e-05	7649
bin	6.408e-05	7517
bin	6.49344e-05	7175
bin	6.57888e-05	6939
bin	6.66432e-05	6641
bin	6.74976e-05	6593
bin	6.8352e-05	6277
bin	6.92064e-05	6027
bin	7.00608e-05	6058
bin	7.09152e-05	5734
bin	7.17696e-05	5457
bin	7.2624e-05	5382
bin	7.34784e-05	5143
bin	7.43328e-05	5035
bin	7.51872e-05	4962
bin	7.60416e-05	4793
bin	7.6896e-05	4636
bin	7.77504e-05	4712
bin	7.86048e-05	4509
bin	7.94592e-05	4351
bin	8.03136e-05	4495
bin	8.1168e-05	4263
bin	8.20224e-05	4300
bin	8.28768e-05	4033
bin	8.37312e-05	4113
bin	8.45856e-05	3985
bin	8.544e-05	3788
bin	8.62944e-05	3825
bin	8.71488e-05	3733
bin	8.80032e-05	3778
bin	8.88576e-05	3620
bin	8.9712e-05	3594
bin	9.05664e-05	3739
bin	9.14208e-05	3615
bin	9.22752e-05	3527
bin	9.31296e-05	3592
bin	9.3984e-05	3513
bin	9.48384e-05	3589
bin	9.56928e-05	3458
bin	9.65472e-05	3422
bin	9.74016e-05	3445
bin	9.8256e-05	3471
bin	9.91104e-05	3361
bin	9.99648e-05	3286
bin	0.0001008192	3200
bin	0.0001016736	3261
bin	0.000102528	3176
bin	0.0001033824	3147
bin	0.0001042368	3038
bin	0.0001050912	3126
bin	0.0001059456	3023
bin	0.0001068	2957
bin	0.0001076544	2858
bin	0.0001085088	2929
bin	0.0001093632	2808
bin	0.0001102176	2679
bin	0.000111072	2604
bin	0.0001119264	2585
bin	0.0001127808	2531
bin	0.0001136352	2477
bin	0.0001144896	2446
bin	0.000115344	2426
bin	0.0001161984	2307
bin	0.0001170528	2254
bin	0.0001179072	2153
bin	0.0001187616	2183
bin	0.000119616	2208
bin	0.0001204704	2213
bin	0.0001213248	2103
bin	0.0001221792	2092
bin	0.0001230336	2042
bin	0.000123888	2059
bin	0.0001247424	1992
bin	0.0001255968	1985
bin	0.0001264512	1995
bin	0.0001273056	2000
bin	0.00012816	1948
bin	0.0001290144	1944
bin	0.0001298688	2029
bin	0.0001307232	1944
bin	0.0001315776	1868
bin	0.000132432	1893
bin	0.0001332864	1984
bin	0.0001341408	1885
bin	0.0001349952	1871
bin	0.0001358496	1903
bin	0.000136704	1854
bin	0.0001375584	1909
bin	0.0001384128	1923
bin	0.0001392672	1954
bin	0.0001401216	1879
bin	0.000140976	1889
bin	0.0001418304	1885
bin	0.0001426848	1954
bin	0.0001435392	1811
bin	0.0001443936	1921
bin	0.000145248	1839
bin	0.0001461024	1894
bin	0.0001469568	1778
bin	0.0001478112	1768
bin	0.0001486656	1789
bin	0.00014952	1735
bin	0.0001503744	1734
bin	0.0001512288	1650
bin	0.0001520832	1616
bin	0.0001529376	1548
bin	0.000153792	1531
bin	0.0001546464	1510
bin	0.0001555008	1571
bin	0.0001563552	1510
bin	0.0001572096	1488
bin	0.000158064	1504
bin	0.0001589184	1468
bin	0.0001597728	1460
bin	0.0001606272	1416
bin	0.0001614816	1441
bin	0.000162336	1385
bin	0.0001631904	1383
bin	0.0001640448	1434
bin	0.0001648992	1343
bin	0.0001657536	1318
bin	0.000166608	1330
bin	0.0001674624	1283
bin	0.0001683168	1297
bin	0.0001691712	1338
bin	0.0001700256	1315
bin	0.00017088	1299
bin	0.0001717344	1291
bin	0.0001725888	1268
bin	0.0001734432	1283
bin	0.0001742976	1275
bin	0.000175152	1305
bin	0.0001760064	1250
bin	0.0001768608	1298
bin	0.0001777152	1362
bin	0.0001785696	1284
bin	0.000179424	1298
bin	0.0001802784	1262
bin	0.0001811328	1326
bin	0.0001819872	1229
bin	0.0001828416	1266
bin	0.000183696	1239
bin	0.0001845504	1290
bin	0.0001854048	1237
bin	0.0001862592	1191
bin	0.0001871136	1263
bin	0.000187968	1229
bin	0.0001888224	1174
bin	0.0001896768	1120
bin	0.0001905312	1080
bin	0.0001913856	1072
bin	0.00019224	1150
bin	0.0001930944	1089
bin	0.0001939488	1085
bin	0.0001948032	1125
bin	0.0001956576	1074
bin	0.000196512	1067
bin	0.0001973664	1100
bin	0.0001982208	1174
bin	0.0001990752	1133
bin	0.0001999296	1140
bin	0.000200784	1096
bin	0.0002016384	1087
bin	0.0002024928	1079
bin	0.0002033472	1027
bin	0.0002042016	1012
bin	0.000205056	1001
bin	0.0002059104	985
bin	0.0002067648	1022
bin	0.0002076192	1014
bin	0.0002084736	997
bin	0.000209328	1028
bin	0.0002101824	1006
bin	0.0002110368	991
bin	0.0002118912	972
bin	0.0002127456	945
bin	0.0002136	931
bin	0.0002144544	973
bin	0.0002153088	977
bin	0.0002161632	964
bin	0.0002170176	1008
bin	0.000217872	1020
bin	0.0002187264	953
bin	0.0002195808	977
bin	0.0002204352	990
bin	0.0002212896	991
bin	0.000222144	1042
bin	0.0002229984	993
bin	0.0002238528	1040
bin	0.0002247072	1019
bin	0.0002255616	961
bin	0.000226416	965
bin	0.0002272704	961
bin	0.0002281248	955
bin	0.0002289792	933
bin	0.0002298336	939
bin	0.000230688	931
bin	0.0002315424	916
bin	0.0002323968	888
bin	0.0002332512	920
bin	0.0002341056	856
bin	0.00023496	915
bin	0.0002358144	909
bin	0.0002366688	893
bin	0.0002375232	898
bin	0.0002383776	906
bin	0.000239232	879
bin	0.0002400864	885
bin	0.0002409408	823
bin	0.0002417952	813
bin	0.0002426496	819
bin	0.000243504	793
bin	0.0002443584	775
bin	0.0002452128	717
bin	0.0002460672	827
bin	0.0002469216	748
bin	0.000247776	805
bin	0.0002486304	755
bin	0.0002494848	770
bin	0.0002503392	795
bin	0.0002511936	762
bin	0.000252048	763
bin	0.0002529024	830
bin	0.0002537568	773
bin	0.0002546112	803
bin	0.0002554656	811
bin	0.00025632	814
bin	0.0002571744	808
bin	0.0002580288	816
bin	0.0002588832	784
bin	0.0002597376	792
bin	0.000260592	872
bin	0.0002614464	853
bin	0.0002623008	862
bin	0.0002631552	815
bin	0.0002640096	801
bin	0.000264864	801
bin	0.0002657184	860
bin	0.0002665728	776
bin	0.0002674272	780
bin	0.0002682816	788
bin	0.000269136	774
bin	0.0002699904	728
bin	0.0002708448	790
bin	0.0002716992	744
bin	0.0002725536	762
bin	0.000273408	767
bin	0.0002742624	761
bin	0.0002751168	716
bin	0.0002759712	721
bin	0.0002768256	710
bin	0.00027768	712
bin	0.0002785344	687
bin	0.0002793888	691
bin	0.0002802432	704
bin	0.0002810976	675
bin	0.000281952	663
bin	0.0002828064	679
bin	0.0002836608	720
bin	0.0002845152	675
bin	0.0002853696	675
bin	0.000286224	714
bin	0.0002870784	704
bin	0.0002879328	682
bin	0.0002887872	667
bin	0.0002896416	698
bin	0.000290496	668
bin	0.0002913504	712
bin	0.0002922048	717
bin	0.0002930592	746
bin	0.0002939136	696
bin	0.000294768	693
bin	0.0002956224	740
bin	0.0002964768	732
bin	0.0002973312	721
bin	0.0002981856	727
bin	0.00029904	737
bin	0.0002998944	742
bin	0.0003007488	725
bin	0.0003016032	733
bin	0.0003024576	722
bin	0.000303312	689
bin	0.0003041664	646
bin	0.0003050208	692
bin	0.0003058752	728
bin	0.0003067296	748
bin	0.000307584	739
bin	0.0003084384	726
bin	0.0003092928	690
bin	0.0003101472	706
bin	0.0003110016	747
bin	0.000311856	737
bin	0.0003127104	753
bin	0.0003135648	718
bin	0.0003144192	702
bin	0.0003152736	742
bin	0.000316128	691
bin	0.0003169824	700
bin	0.0003178368	734
bin	0.0003186912	751
bin	0.0003195456	709
bin	0.0003204	700
bin	0.0003212544	733
bin	0.0003221088	691
bin	0.0003229632	695
bin	0.0003238176	671
bin	0.000324672	734
bin	0.0003255264	713
bin	0.0003263808	721
bin	0.0003272352	705
bin	0.0003280896	693
bin	0.000328944	694
bin	0.0003297984	694
bin	0.0003306528	670
bin	0.0003315072	710
bin	0.0003323616	685
bin	0.000333216	726
bin	0.0003340704	700
bin	0.0003349248	722
bin	0.0003357792	682
bin	0.0003366336	707
bin	0.000337488	709
bin	0.0003383424	654
bin	0.0003391968	693
bin	0.0003400512	649
bin	0.0003409056	734
bin	0.00034176	692
bin	0.0003426144	720
bin	0.0003434688	731
bin	0.0003443232	739
bin	0.0003451776	694
bin	0.000346032	704
bin	0.0003468864	713
bin	0.0003477408	718
bin	0.0003485952	715
bin	0.0003494496	770
bin	0.000350304	730
bin	0.0003511584	743
bin	0.0003520128	785
bin	0.0003528672	722
bin	0.0003537216	672
bin	0.000354576	688
bin	0.0003554304	676
bin	0.0003562848	654
bin	0.0003571392	657
bin	0.0003579936	657
bin	0.000358848	653
bin	0.0003597024	663
bin	0.0003605568	634
bin	0.0003614112	653
bin	0.0003622656	655
bin	0.00036312	663
bin	0.0003639744	644
bin	0.0003648288	640
bin	0.0003656832	599
bin	0.0003665376	642
bin	0.000367392	603
bin	0.0003682464	608
bin	0.0003691008	610
bin	0.0003699552	620
bin	0.0003708096	629
bin	0.000371664	623
bin	0.0003725184	631
bin	0.0003733728	631
bin	0.0003742272	618
bin	0.0003750816	651
bin	0.000375936	602
bin	0.0003767904	573
bin	0.0003776448	627
bin	0.0003784992	622
bin	0.0003793536	619
bin	0.000380208	645
bin	0.0003810624	641
bin	0.0003819168	640
bin	0.0003827712	607
bin	0.0003836256	594
bin	0.00038448	601
bin	0.0003853344	578
bin	0.0003861888	582
bin	0.0003870432	540
bin	0.0003878976	587
bin	0.000388752	541
bin	0.0003896064	552
bin	0.0003904608	538
bin	0.0003913152	552
bin	0.0003921696	538
bin	0.000393024	529
bin	0.0003938784	515
bin	0.0003947328	551
bin	0.0003955872	571
bin	0.0003964416	572
bin	0.000397296	607
bin	0.0003981504	625
bin	0.0003990048	620
bin	0.0003998592	583
bin	0.0004007136	561
bin	0.000401568	561
bin	0.0004024224	594
bin	0.0004032768	544
bin	0.0004041312	620
bin	0.0004049856	591
bin	0.00040584	564
bin	0.0004066944	546
bin	0.0004075488	517
bin	0.0004084032	514
bin	0.0004092576	506
bin	0.000410112	502
bin	0.0004109664	473
bin	0.0004118208	492
bin	0.0004126752	468
bin	0.0004135296	493
bin	0.000414384	486
bin	0.0004152384	495
bin	0.0004160928	544
bin	0.0004169472	538
bin	0.0004178016	520
bin	0.000418656	535
bin	0.0004195104	520
bin	0.0004203648	483
bin	0.0004212192	480
bin	0.0004220736	500
bin	0.000422928	484
bin	0.0004237824	499
bin	0.0004246368	525
bin	0.0004254912	510
bin	0.0004263456	499
bin	0.0004272	5103092
