version 2
run Bitcomplement-1-20120709-19:07:42-24863
attr alg 1
attr buf 8
attr configname Bitcomplement
attr datetime 20120709-19:07:42
attr delta 0.2
attr experiment Bitcomplement
attr ext true
attr inifile altro.ini
attr iterationvars "$buf=8, $ext=true, $ofedge=1, $delta=0.2, $alg=1"
attr iterationvars2 "$buf=8, $ext=true, $ofedge=1, $delta=0.2, $alg=1, $repetition=0"
attr measurement "$buf=8, $ext=true, $ofedge=1, $delta=0.2, $alg=1"
attr network Torus3d_bub
attr ofedge 1
attr processid 24863
attr repetition 0
attr replication #0
attr resultdir altro-results
attr runnumber 1
attr seedset 1

scalar . 	alg 	1
scalar . 	buf 	8
scalar . 	delta 	0.2
scalar . 	ofedge 	1
scalar Torus3d_bub.timer 	#endTime 	0.009788550985165
scalar Torus3d_bub.timer 	#totalHops 	99972406
scalar Torus3d_bub.timer 	#totalPacks 	6291456
scalar Torus3d_bub.timer 	#totalDerouted 	3824160
scalar Torus3d_bub.timer 	#totalOutFlanked 	3824160
scalar Torus3d_bub.timer 	#totalCQRed 	0
scalar Torus3d_bub.timer 	#LB 	0.000786432
scalar Torus3d_bub.timer 	#ratio 	0.080342024186407
statistic Torus3d_bub.timer 	"Hop Times"
field count 6291456
field mean 0.00011896891993699
field stddev 0.00018381993873619
field sum 748.4877251511
field sqrsum 0.30163359288868
field min 4.11684139e-07
field max 0.002854094111111
bin	-INF	0
bin	0	0
bin	7.12e-08	0
bin	1.424e-07	0
bin	2.136e-07	0
bin	2.848e-07	0
bin	3.56e-07	5
bin	4.272e-07	1100
bin	4.984e-07	7173
bin	5.696e-07	11695
bin	6.408e-07	11712
bin	7.12e-07	12509
bin	7.832e-07	13463
bin	8.544e-07	15986
bin	9.256e-07	18148
bin	9.968e-07	20570
bin	1.068e-06	22631
bin	1.1392e-06	24949
bin	1.2104e-06	27273
bin	1.2816e-06	29308
bin	1.3528e-06	30648
bin	1.424e-06	32358
bin	1.4952e-06	32889
bin	1.5664e-06	32953
bin	1.6376e-06	32779
bin	1.7088e-06	32582
bin	1.78e-06	32342
bin	1.8512e-06	31814
bin	1.9224e-06	31630
bin	1.9936e-06	31176
bin	2.0648e-06	30718
bin	2.136e-06	30634
bin	2.2072e-06	30505
bin	2.2784e-06	30579
bin	2.3496e-06	30448
bin	2.4208e-06	29868
bin	2.492e-06	29997
bin	2.5632e-06	30150
bin	2.6344e-06	30063
bin	2.7056e-06	30026
bin	2.7768e-06	30184
bin	2.848e-06	30479
bin	2.9192e-06	30235
bin	2.9904e-06	30308
bin	3.0616e-06	30458
bin	3.1328e-06	30513
bin	3.204e-06	30575
bin	3.2752e-06	30394
bin	3.3464e-06	30364
bin	3.4176e-06	30147
bin	3.4888e-06	30324
bin	3.56e-06	30199
bin	3.6312e-06	29991
bin	3.7024e-06	30273
bin	3.7736e-06	30092
bin	3.8448e-06	29640
bin	3.916e-06	29867
bin	3.9872e-06	29524
bin	4.0584e-06	29466
bin	4.1296e-06	29706
bin	4.2008e-06	28970
bin	4.272e-06	29104
bin	4.3432e-06	28925
bin	4.4144e-06	28749
bin	4.4856e-06	28591
bin	4.5568e-06	28812
bin	4.628e-06	28421
bin	4.6992e-06	28285
bin	4.7704e-06	27824
bin	4.8416e-06	27258
bin	4.9128e-06	27454
bin	4.984e-06	26936
bin	5.0552e-06	26604
bin	5.1264e-06	26359
bin	5.1976e-06	25856
bin	5.2688e-06	26052
bin	5.34e-06	25319
bin	5.4112e-06	25014
bin	5.4824e-06	24696
bin	5.5536e-06	24595
bin	5.6248e-06	24133
bin	5.696e-06	24121
bin	5.7672e-06	23553
bin	5.8384e-06	23377
bin	5.9096e-06	22980
bin	5.9808e-06	22428
bin	6.052e-06	22051
bin	6.1232e-06	21248
bin	6.1944e-06	20838
bin	6.2656e-06	20476
bin	6.3368e-06	20066
bin	6.408e-06	19752
bin	6.4792e-06	19281
bin	6.5504e-06	18717
bin	6.6216e-06	18416
bin	6.6928e-06	17968
bin	6.764e-06	17645
bin	6.8352e-06	17223
bin	6.9064e-06	16853
bin	6.9776e-06	16653
bin	7.0488e-06	16040
bin	7.12e-06	15635
bin	7.1912e-06	15299
bin	7.2624e-06	14712
bin	7.3336e-06	14512
bin	7.4048e-06	14099
bin	7.476e-06	13671
bin	7.5472e-06	13269
bin	7.6184e-06	13151
bin	7.6896e-06	12674
bin	7.7608e-06	12555
bin	7.832e-06	12166
bin	7.9032e-06	11907
bin	7.9744e-06	11458
bin	8.0456e-06	11400
bin	8.1168e-06	11086
bin	8.188e-06	10937
bin	8.2592e-06	10552
bin	8.3304e-06	10305
bin	8.4016e-06	9948
bin	8.4728e-06	9709
bin	8.544e-06	9497
bin	8.6152e-06	9230
bin	8.6864e-06	9160
bin	8.7576e-06	8762
bin	8.8288e-06	8710
bin	8.9e-06	8359
bin	8.9712e-06	8409
bin	9.0424e-06	8013
bin	9.1136e-06	7996
bin	9.1848e-06	7832
bin	9.256e-06	7691
bin	9.3272e-06	7511
bin	9.3984e-06	7464
bin	9.4696e-06	7346
bin	9.5408e-06	7118
bin	9.612e-06	6983
bin	9.6832e-06	6848
bin	9.7544e-06	6556
bin	9.8256e-06	6517
bin	9.8968e-06	6391
bin	9.968e-06	6162
bin	1.00392e-05	6026
bin	1.01104e-05	5952
bin	1.01816e-05	5618
bin	1.02528e-05	5616
bin	1.0324e-05	5439
bin	1.03952e-05	5432
bin	1.04664e-05	5352
bin	1.05376e-05	5297
bin	1.06088e-05	5152
bin	1.068e-05	5129
bin	1.07512e-05	5058
bin	1.08224e-05	4941
bin	1.08936e-05	4956
bin	1.09648e-05	4985
bin	1.1036e-05	4866
bin	1.11072e-05	4686
bin	1.11784e-05	4744
bin	1.12496e-05	4628
bin	1.13208e-05	4548
bin	1.1392e-05	4422
bin	1.14632e-05	4315
bin	1.15344e-05	4332
bin	1.16056e-05	4070
bin	1.16768e-05	4133
bin	1.1748e-05	4133
bin	1.18192e-05	3963
bin	1.18904e-05	3998
bin	1.19616e-05	3779
bin	1.20328e-05	3811
bin	1.2104e-05	3693
bin	1.21752e-05	3733
bin	1.22464e-05	3663
bin	1.23176e-05	3610
bin	1.23888e-05	3646
bin	1.246e-05	3387
bin	1.25312e-05	3479
bin	1.26024e-05	3425
bin	1.26736e-05	3449
bin	1.27448e-05	3342
bin	1.2816e-05	3384
bin	1.28872e-05	3330
bin	1.29584e-05	3297
bin	1.30296e-05	3291
bin	1.31008e-05	3262
bin	1.3172e-05	3145
bin	1.32432e-05	3121
bin	1.33144e-05	3054
bin	1.33856e-05	3057
bin	1.34568e-05	3045
bin	1.3528e-05	2882
bin	1.35992e-05	2903
bin	1.36704e-05	2884
bin	1.37416e-05	2850
bin	1.38128e-05	2719
bin	1.3884e-05	2595
bin	1.39552e-05	2630
bin	1.40264e-05	2487
bin	1.40976e-05	2534
bin	1.41688e-05	2464
bin	1.424e-05	2503
bin	1.43112e-05	2506
bin	1.43824e-05	2386
bin	1.44536e-05	2334
bin	1.45248e-05	2267
bin	1.4596e-05	2375
bin	1.46672e-05	2253
bin	1.47384e-05	2198
bin	1.48096e-05	2197
bin	1.48808e-05	2193
bin	1.4952e-05	2135
bin	1.50232e-05	2135
bin	1.50944e-05	2123
bin	1.51656e-05	2087
bin	1.52368e-05	2051
bin	1.5308e-05	1982
bin	1.53792e-05	2020
bin	1.54504e-05	2005
bin	1.55216e-05	1954
bin	1.55928e-05	1941
bin	1.5664e-05	1912
bin	1.57352e-05	1975
bin	1.58064e-05	1954
bin	1.58776e-05	1852
bin	1.59488e-05	1871
bin	1.602e-05	1874
bin	1.60912e-05	1873
bin	1.61624e-05	1842
bin	1.62336e-05	1837
bin	1.63048e-05	1829
bin	1.6376e-05	1925
bin	1.64472e-05	1910
bin	1.65184e-05	1847
bin	1.65896e-05	1886
bin	1.66608e-05	1830
bin	1.6732e-05	1786
bin	1.68032e-05	1853
bin	1.68744e-05	1770
bin	1.69456e-05	1777
bin	1.70168e-05	1737
bin	1.7088e-05	1751
bin	1.71592e-05	1689
bin	1.72304e-05	1613
bin	1.73016e-05	1642
bin	1.73728e-05	1657
bin	1.7444e-05	1622
bin	1.75152e-05	1595
bin	1.75864e-05	1532
bin	1.76576e-05	1569
bin	1.77288e-05	1581
bin	1.78e-05	1464
bin	1.78712e-05	1456
bin	1.79424e-05	1426
bin	1.80136e-05	1439
bin	1.80848e-05	1392
bin	1.8156e-05	1369
bin	1.82272e-05	1358
bin	1.82984e-05	1338
bin	1.83696e-05	1348
bin	1.84408e-05	1316
bin	1.8512e-05	1258
bin	1.85832e-05	1304
bin	1.86544e-05	1371
bin	1.87256e-05	1401
bin	1.87968e-05	1360
bin	1.8868e-05	1466
bin	1.89392e-05	1432
bin	1.90104e-05	1455
bin	1.90816e-05	1409
bin	1.91528e-05	1396
bin	1.9224e-05	1387
bin	1.92952e-05	1474
bin	1.93664e-05	1450
bin	1.94376e-05	1328
bin	1.95088e-05	1336
bin	1.958e-05	1228
bin	1.96512e-05	1266
bin	1.97224e-05	1329
bin	1.97936e-05	1283
bin	1.98648e-05	1225
bin	1.9936e-05	1251
bin	2.00072e-05	1206
bin	2.00784e-05	1212
bin	2.01496e-05	1195
bin	2.02208e-05	1264
bin	2.0292e-05	1201
bin	2.03632e-05	1167
bin	2.04344e-05	1167
bin	2.05056e-05	1199
bin	2.05768e-05	1133
bin	2.0648e-05	1074
bin	2.07192e-05	1132
bin	2.07904e-05	1131
bin	2.08616e-05	1117
bin	2.09328e-05	1095
bin	2.1004e-05	1036
bin	2.10752e-05	1053
bin	2.11464e-05	1109
bin	2.12176e-05	1074
bin	2.12888e-05	1118
bin	2.136e-05	1091
bin	2.14312e-05	1154
bin	2.15024e-05	1118
bin	2.15736e-05	1110
bin	2.16448e-05	1121
bin	2.1716e-05	1043
bin	2.17872e-05	1095
bin	2.18584e-05	1080
bin	2.19296e-05	1140
bin	2.20008e-05	1130
bin	2.2072e-05	1157
bin	2.21432e-05	1064
bin	2.22144e-05	1064
bin	2.22856e-05	1089
bin	2.23568e-05	1103
bin	2.2428e-05	1069
bin	2.24992e-05	1038
bin	2.25704e-05	1034
bin	2.26416e-05	954
bin	2.27128e-05	999
bin	2.2784e-05	1043
bin	2.28552e-05	1008
bin	2.29264e-05	1029
bin	2.29976e-05	1057
bin	2.30688e-05	1108
bin	2.314e-05	1083
bin	2.32112e-05	1012
bin	2.32824e-05	995
bin	2.33536e-05	1012
bin	2.34248e-05	991
bin	2.3496e-05	941
bin	2.35672e-05	935
bin	2.36384e-05	885
bin	2.37096e-05	917
bin	2.37808e-05	962
bin	2.3852e-05	880
bin	2.39232e-05	897
bin	2.39944e-05	933
bin	2.40656e-05	968
bin	2.41368e-05	926
bin	2.4208e-05	961
bin	2.42792e-05	992
bin	2.43504e-05	917
bin	2.44216e-05	980
bin	2.44928e-05	975
bin	2.4564e-05	934
bin	2.46352e-05	991
bin	2.47064e-05	971
bin	2.47776e-05	1070
bin	2.48488e-05	981
bin	2.492e-05	1027
bin	2.49912e-05	999
bin	2.50624e-05	967
bin	2.51336e-05	952
bin	2.52048e-05	874
bin	2.5276e-05	877
bin	2.53472e-05	892
bin	2.54184e-05	856
bin	2.54896e-05	802
bin	2.55608e-05	804
bin	2.5632e-05	802
bin	2.57032e-05	816
bin	2.57744e-05	851
bin	2.58456e-05	832
bin	2.59168e-05	848
bin	2.5988e-05	817
bin	2.60592e-05	860
bin	2.61304e-05	895
bin	2.62016e-05	848
bin	2.62728e-05	823
bin	2.6344e-05	838
bin	2.64152e-05	788
bin	2.64864e-05	786
bin	2.65576e-05	815
bin	2.66288e-05	852
bin	2.67e-05	789
bin	2.67712e-05	797
bin	2.68424e-05	781
bin	2.69136e-05	812
bin	2.69848e-05	822
bin	2.7056e-05	784
bin	2.71272e-05	823
bin	2.71984e-05	782
bin	2.72696e-05	757
bin	2.73408e-05	779
bin	2.7412e-05	752
bin	2.74832e-05	821
bin	2.75544e-05	809
bin	2.76256e-05	790
bin	2.76968e-05	796
bin	2.7768e-05	782
bin	2.78392e-05	826
bin	2.79104e-05	868
bin	2.79816e-05	847
bin	2.80528e-05	829
bin	2.8124e-05	841
bin	2.81952e-05	777
bin	2.82664e-05	773
bin	2.83376e-05	793
bin	2.84088e-05	762
bin	2.848e-05	756
bin	2.85512e-05	767
bin	2.86224e-05	761
bin	2.86936e-05	753
bin	2.87648e-05	728
bin	2.8836e-05	742
bin	2.89072e-05	732
bin	2.89784e-05	740
bin	2.90496e-05	766
bin	2.91208e-05	695
bin	2.9192e-05	772
bin	2.92632e-05	708
bin	2.93344e-05	721
bin	2.94056e-05	687
bin	2.94768e-05	761
bin	2.9548e-05	738
bin	2.96192e-05	693
bin	2.96904e-05	686
bin	2.97616e-05	698
bin	2.98328e-05	760
bin	2.9904e-05	677
bin	2.99752e-05	677
bin	3.00464e-05	658
bin	3.01176e-05	662
bin	3.01888e-05	696
bin	3.026e-05	679
bin	3.03312e-05	715
bin	3.04024e-05	624
bin	3.04736e-05	620
bin	3.05448e-05	694
bin	3.0616e-05	672
bin	3.06872e-05	636
bin	3.07584e-05	677
bin	3.08296e-05	655
bin	3.09008e-05	669
bin	3.0972e-05	658
bin	3.10432e-05	669
bin	3.11144e-05	637
bin	3.11856e-05	648
bin	3.12568e-05	615
bin	3.1328e-05	645
bin	3.13992e-05	647
bin	3.14704e-05	673
bin	3.15416e-05	658
bin	3.16128e-05	623
bin	3.1684e-05	655
bin	3.17552e-05	692
bin	3.18264e-05	717
bin	3.18976e-05	703
bin	3.19688e-05	729
bin	3.204e-05	706
bin	3.21112e-05	753
bin	3.21824e-05	744
bin	3.22536e-05	716
bin	3.23248e-05	763
bin	3.2396e-05	797
bin	3.24672e-05	799
bin	3.25384e-05	841
bin	3.26096e-05	825
bin	3.26808e-05	791
bin	3.2752e-05	786
bin	3.28232e-05	768
bin	3.28944e-05	830
bin	3.29656e-05	787
bin	3.30368e-05	789
bin	3.3108e-05	728
bin	3.31792e-05	758
bin	3.32504e-05	712
bin	3.33216e-05	756
bin	3.33928e-05	728
bin	3.3464e-05	687
bin	3.35352e-05	680
bin	3.36064e-05	712
bin	3.36776e-05	690
bin	3.37488e-05	693
bin	3.382e-05	715
bin	3.38912e-05	687
bin	3.39624e-05	743
bin	3.40336e-05	670
bin	3.41048e-05	744
bin	3.4176e-05	641
bin	3.42472e-05	683
bin	3.43184e-05	692
bin	3.43896e-05	670
bin	3.44608e-05	680
bin	3.4532e-05	624
bin	3.46032e-05	644
bin	3.46744e-05	668
bin	3.47456e-05	644
bin	3.48168e-05	677
bin	3.4888e-05	659
bin	3.49592e-05	654
bin	3.50304e-05	637
bin	3.51016e-05	701
bin	3.51728e-05	683
bin	3.5244e-05	694
bin	3.53152e-05	643
bin	3.53864e-05	627
bin	3.54576e-05	627
bin	3.55288e-05	666
bin	3.56e-05	2911241
statistic Torus3d_bub.timer 	"Life Times"
field count 6291456
field mean 0.0015790618917143
field stddev 0.0019550794667859
field sum 9934.5984129973
field sqrsum 39.735398949831
field min 1.447665514e-06
field max 0.0093748893185
bin	-INF	0
bin	0	0
bin	8.544e-07	107
bin	1.7088e-06	718
bin	2.5632e-06	1736
bin	3.4176e-06	3360
bin	4.272e-06	5272
bin	5.1264e-06	6760
bin	5.9808e-06	7205
bin	6.8352e-06	7655
bin	7.6896e-06	8520
bin	8.544e-06	9951
bin	9.3984e-06	11033
bin	1.02528e-05	11654
bin	1.11072e-05	12588
bin	1.19616e-05	12740
bin	1.2816e-05	13168
bin	1.36704e-05	13239
bin	1.45248e-05	13378
bin	1.53792e-05	13077
bin	1.62336e-05	13410
bin	1.7088e-05	13560
bin	1.79424e-05	14176
bin	1.87968e-05	14253
bin	1.96512e-05	14590
bin	2.05056e-05	15349
bin	2.136e-05	16257
bin	2.22144e-05	16819
bin	2.30688e-05	17121
bin	2.39232e-05	17740
bin	2.47776e-05	18236
bin	2.5632e-05	18475
bin	2.64864e-05	18864
bin	2.73408e-05	19627
bin	2.81952e-05	19802
bin	2.90496e-05	19681
bin	2.9904e-05	20268
bin	3.07584e-05	20250
bin	3.16128e-05	20673
bin	3.24672e-05	20355
bin	3.33216e-05	20956
bin	3.4176e-05	20875
bin	3.50304e-05	20779
bin	3.58848e-05	21314
bin	3.67392e-05	21403
bin	3.75936e-05	21607
bin	3.8448e-05	21701
bin	3.93024e-05	22131
bin	4.01568e-05	22199
bin	4.10112e-05	22435
bin	4.18656e-05	22301
bin	4.272e-05	22469
bin	4.35744e-05	22646
bin	4.44288e-05	22611
bin	4.52832e-05	23025
bin	4.61376e-05	23308
bin	4.6992e-05	23286
bin	4.78464e-05	23707
bin	4.87008e-05	23503
bin	4.95552e-05	23804
bin	5.04096e-05	23812
bin	5.1264e-05	23568
bin	5.21184e-05	23798
bin	5.29728e-05	23876
bin	5.38272e-05	23668
bin	5.46816e-05	23737
bin	5.5536e-05	24313
bin	5.63904e-05	23997
bin	5.72448e-05	24008
bin	5.80992e-05	24295
bin	5.89536e-05	24242
bin	5.9808e-05	24408
bin	6.06624e-05	24294
bin	6.15168e-05	24215
bin	6.23712e-05	24189
bin	6.32256e-05	23983
bin	6.408e-05	24389
bin	6.49344e-05	24158
bin	6.57888e-05	24503
bin	6.66432e-05	23945
bin	6.74976e-05	24095
bin	6.8352e-05	24030
bin	6.92064e-05	24238
bin	7.00608e-05	24050
bin	7.09152e-05	24259
bin	7.17696e-05	24004
bin	7.2624e-05	24055
bin	7.34784e-05	24025
bin	7.43328e-05	24275
bin	7.51872e-05	24237
bin	7.60416e-05	24094
bin	7.6896e-05	24356
bin	7.77504e-05	24115
bin	7.86048e-05	24170
bin	7.94592e-05	23882
bin	8.03136e-05	23743
bin	8.1168e-05	23532
bin	8.20224e-05	23577
bin	8.28768e-05	23599
bin	8.37312e-05	23579
bin	8.45856e-05	23641
bin	8.544e-05	23520
bin	8.62944e-05	23151
bin	8.71488e-05	23060
bin	8.80032e-05	23077
bin	8.88576e-05	22959
bin	8.9712e-05	23005
bin	9.05664e-05	22588
bin	9.14208e-05	22196
bin	9.22752e-05	22264
bin	9.31296e-05	22362
bin	9.3984e-05	22212
bin	9.48384e-05	21479
bin	9.56928e-05	21653
bin	9.65472e-05	21712
bin	9.74016e-05	21444
bin	9.8256e-05	21215
bin	9.91104e-05	20886
bin	9.99648e-05	20708
bin	0.0001008192	20505
bin	0.0001016736	20256
bin	0.000102528	19936
bin	0.0001033824	19953
bin	0.0001042368	19389
bin	0.0001050912	19581
bin	0.0001059456	19087
bin	0.0001068	18630
bin	0.0001076544	18342
bin	0.0001085088	18378
bin	0.0001093632	18059
bin	0.0001102176	17840
bin	0.000111072	17579
bin	0.0001119264	16936
bin	0.0001127808	16984
bin	0.0001136352	16369
bin	0.0001144896	16237
bin	0.000115344	15980
bin	0.0001161984	15419
bin	0.0001170528	15426
bin	0.0001179072	15362
bin	0.0001187616	14947
bin	0.000119616	14329
bin	0.0001204704	14057
bin	0.0001213248	13764
bin	0.0001221792	13549
bin	0.0001230336	12874
bin	0.000123888	11811
bin	0.0001247424	10573
bin	0.0001255968	9679
bin	0.0001264512	8939
bin	0.0001273056	8239
bin	0.00012816	7327
bin	0.0001290144	6579
bin	0.0001298688	6200
bin	0.0001307232	5522
bin	0.0001315776	5187
bin	0.000132432	4890
bin	0.0001332864	4543
bin	0.0001341408	4183
bin	0.0001349952	3928
bin	0.0001358496	3669
bin	0.000136704	3382
bin	0.0001375584	3218
bin	0.0001384128	3094
bin	0.0001392672	3076
bin	0.0001401216	2848
bin	0.000140976	2653
bin	0.0001418304	2534
bin	0.0001426848	2529
bin	0.0001435392	2371
bin	0.0001443936	2297
bin	0.000145248	2231
bin	0.0001461024	2192
bin	0.0001469568	2118
bin	0.0001478112	2036
bin	0.0001486656	1906
bin	0.00014952	1904
bin	0.0001503744	1842
bin	0.0001512288	1748
bin	0.0001520832	1782
bin	0.0001529376	1752
bin	0.000153792	1678
bin	0.0001546464	1777
bin	0.0001555008	1700
bin	0.0001563552	1695
bin	0.0001572096	1677
bin	0.000158064	1661
bin	0.0001589184	1567
bin	0.0001597728	1538
bin	0.0001606272	1581
bin	0.0001614816	1541
bin	0.000162336	1538
bin	0.0001631904	1474
bin	0.0001640448	1448
bin	0.0001648992	1426
bin	0.0001657536	1572
bin	0.000166608	1532
bin	0.0001674624	1555
bin	0.0001683168	1522
bin	0.0001691712	1524
bin	0.0001700256	1566
bin	0.00017088	1594
bin	0.0001717344	1514
bin	0.0001725888	1553
bin	0.0001734432	1532
bin	0.0001742976	1604
bin	0.000175152	1541
bin	0.0001760064	1601
bin	0.0001768608	1538
bin	0.0001777152	1541
bin	0.0001785696	1576
bin	0.000179424	1511
bin	0.0001802784	1544
bin	0.0001811328	1564
bin	0.0001819872	1578
bin	0.0001828416	1505
bin	0.000183696	1534
bin	0.0001845504	1485
bin	0.0001854048	1498
bin	0.0001862592	1437
bin	0.0001871136	1446
bin	0.000187968	1390
bin	0.0001888224	1446
bin	0.0001896768	1460
bin	0.0001905312	1469
bin	0.0001913856	1459
bin	0.00019224	1488
bin	0.0001930944	1491
bin	0.0001939488	1450
bin	0.0001948032	1504
bin	0.0001956576	1480
bin	0.000196512	1468
bin	0.0001973664	1471
bin	0.0001982208	1437
bin	0.0001990752	1518
bin	0.0001999296	1574
bin	0.000200784	1581
bin	0.0002016384	1634
bin	0.0002024928	1588
bin	0.0002033472	1572
bin	0.0002042016	1569
bin	0.000205056	1459
bin	0.0002059104	1512
bin	0.0002067648	1579
bin	0.0002076192	1547
bin	0.0002084736	1656
bin	0.000209328	1659
bin	0.0002101824	1634
bin	0.0002110368	1711
bin	0.0002118912	1636
bin	0.0002127456	1697
bin	0.0002136	1648
bin	0.0002144544	1697
bin	0.0002153088	1652
bin	0.0002161632	1651
bin	0.0002170176	1620
bin	0.000217872	1647
bin	0.0002187264	1678
bin	0.0002195808	1678
bin	0.0002204352	1644
bin	0.0002212896	1676
bin	0.000222144	1680
bin	0.0002229984	1732
bin	0.0002238528	1696
bin	0.0002247072	1809
bin	0.0002255616	1741
bin	0.000226416	1772
bin	0.0002272704	1728
bin	0.0002281248	1838
bin	0.0002289792	1802
bin	0.0002298336	1763
bin	0.000230688	1845
bin	0.0002315424	1792
bin	0.0002323968	1786
bin	0.0002332512	1859
bin	0.0002341056	1851
bin	0.00023496	1929
bin	0.0002358144	1920
bin	0.0002366688	1910
bin	0.0002375232	1968
bin	0.0002383776	1953
bin	0.000239232	1997
bin	0.0002400864	2062
bin	0.0002409408	2084
bin	0.0002417952	2075
bin	0.0002426496	2171
bin	0.000243504	2145
bin	0.0002443584	2292
bin	0.0002452128	2376
bin	0.0002460672	2292
bin	0.0002469216	2311
bin	0.000247776	2245
bin	0.0002486304	2026
bin	0.0002494848	2050
bin	0.0002503392	1900
bin	0.0002511936	1855
bin	0.000252048	1825
bin	0.0002529024	1691
bin	0.0002537568	1658
bin	0.0002546112	1507
bin	0.0002554656	1479
bin	0.00025632	1475
bin	0.0002571744	1398
bin	0.0002580288	1291
bin	0.0002588832	1194
bin	0.0002597376	1194
bin	0.000260592	1117
bin	0.0002614464	1043
bin	0.0002623008	1053
bin	0.0002631552	1003
bin	0.0002640096	956
bin	0.000264864	969
bin	0.0002657184	952
bin	0.0002665728	891
bin	0.0002674272	867
bin	0.0002682816	839
bin	0.000269136	808
bin	0.0002699904	858
bin	0.0002708448	869
bin	0.0002716992	816
bin	0.0002725536	803
bin	0.000273408	808
bin	0.0002742624	779
bin	0.0002751168	727
bin	0.0002759712	783
bin	0.0002768256	732
bin	0.00027768	740
bin	0.0002785344	796
bin	0.0002793888	760
bin	0.0002802432	721
bin	0.0002810976	706
bin	0.000281952	728
bin	0.0002828064	771
bin	0.0002836608	712
bin	0.0002845152	675
bin	0.0002853696	713
bin	0.000286224	715
bin	0.0002870784	747
bin	0.0002879328	704
bin	0.0002887872	722
bin	0.0002896416	739
bin	0.000290496	732
bin	0.0002913504	696
bin	0.0002922048	722
bin	0.0002930592	677
bin	0.0002939136	677
bin	0.000294768	675
bin	0.0002956224	684
bin	0.0002964768	664
bin	0.0002973312	691
bin	0.0002981856	706
bin	0.00029904	695
bin	0.0002998944	692
bin	0.0003007488	712
bin	0.0003016032	692
bin	0.0003024576	675
bin	0.000303312	652
bin	0.0003041664	676
bin	0.0003050208	639
bin	0.0003058752	686
bin	0.0003067296	673
bin	0.000307584	702
bin	0.0003084384	695
bin	0.0003092928	695
bin	0.0003101472	761
bin	0.0003110016	681
bin	0.000311856	694
bin	0.0003127104	687
bin	0.0003135648	775
bin	0.0003144192	775
bin	0.0003152736	748
bin	0.000316128	749
bin	0.0003169824	727
bin	0.0003178368	727
bin	0.0003186912	794
bin	0.0003195456	794
bin	0.0003204	769
bin	0.0003212544	804
bin	0.0003221088	829
bin	0.0003229632	787
bin	0.0003238176	798
bin	0.000324672	826
bin	0.0003255264	752
bin	0.0003263808	798
bin	0.0003272352	822
bin	0.0003280896	822
bin	0.000328944	812
bin	0.0003297984	786
bin	0.0003306528	789
bin	0.0003315072	761
bin	0.0003323616	800
bin	0.000333216	728
bin	0.0003340704	719
bin	0.0003349248	770
bin	0.0003357792	757
bin	0.0003366336	773
bin	0.000337488	793
bin	0.0003383424	794
bin	0.0003391968	788
bin	0.0003400512	836
bin	0.0003409056	787
bin	0.00034176	811
bin	0.0003426144	793
bin	0.0003434688	821
bin	0.0003443232	809
bin	0.0003451776	818
bin	0.000346032	833
bin	0.0003468864	809
bin	0.0003477408	861
bin	0.0003485952	869
bin	0.0003494496	814
bin	0.000350304	797
bin	0.0003511584	870
bin	0.0003520128	836
bin	0.0003528672	830
bin	0.0003537216	843
bin	0.000354576	874
bin	0.0003554304	826
bin	0.0003562848	914
bin	0.0003571392	952
bin	0.0003579936	927
bin	0.000358848	929
bin	0.0003597024	956
bin	0.0003605568	1000
bin	0.0003614112	983
bin	0.0003622656	989
bin	0.00036312	980
bin	0.0003639744	1007
bin	0.0003648288	960
bin	0.0003656832	1034
bin	0.0003665376	1016
bin	0.000367392	1051
bin	0.0003682464	1054
bin	0.0003691008	1042
bin	0.0003699552	1022
bin	0.0003708096	1025
bin	0.000371664	983
bin	0.0003725184	914
bin	0.0003733728	986
bin	0.0003742272	936
bin	0.0003750816	907
bin	0.000375936	865
bin	0.0003767904	834
bin	0.0003776448	860
bin	0.0003784992	789
bin	0.0003793536	757
bin	0.000380208	706
bin	0.0003810624	709
bin	0.0003819168	682
bin	0.0003827712	676
bin	0.0003836256	635
bin	0.00038448	637
bin	0.0003853344	597
bin	0.0003861888	613
bin	0.0003870432	619
bin	0.0003878976	638
bin	0.000388752	597
bin	0.0003896064	563
bin	0.0003904608	587
bin	0.0003913152	574
bin	0.0003921696	560
bin	0.000393024	556
bin	0.0003938784	528
bin	0.0003947328	511
bin	0.0003955872	501
bin	0.0003964416	495
bin	0.000397296	480
bin	0.0003981504	501
bin	0.0003990048	474
bin	0.0003998592	485
bin	0.0004007136	488
bin	0.000401568	497
bin	0.0004024224	514
bin	0.0004032768	531
bin	0.0004041312	521
bin	0.0004049856	513
bin	0.00040584	510
bin	0.0004066944	501
bin	0.0004075488	518
bin	0.0004084032	472
bin	0.0004092576	492
bin	0.000410112	490
bin	0.0004109664	463
bin	0.0004118208	435
bin	0.0004126752	447
bin	0.0004135296	460
bin	0.000414384	473
bin	0.0004152384	483
bin	0.0004160928	459
bin	0.0004169472	479
bin	0.0004178016	415
bin	0.000418656	429
bin	0.0004195104	460
bin	0.0004203648	419
bin	0.0004212192	466
bin	0.0004220736	447
bin	0.000422928	441
bin	0.0004237824	455
bin	0.0004246368	457
bin	0.0004254912	488
bin	0.0004263456	492
bin	0.0004272	3000302
