version 2
run Bitcomplement-22-20120709-20:03:18-24893
attr alg 2
attr buf 8
attr configname Bitcomplement
attr datetime 20120709-20:03:18
attr delta 0.6
attr experiment Bitcomplement
attr ext true
attr inifile altro.ini
attr iterationvars "$buf=8, $ext=true, $ofedge=2, $delta=0.6, $alg=2"
attr iterationvars2 "$buf=8, $ext=true, $ofedge=2, $delta=0.6, $alg=2, $repetition=0"
attr measurement "$buf=8, $ext=true, $ofedge=2, $delta=0.6, $alg=2"
attr network Torus3d_bub
attr ofedge 2
attr processid 24893
attr repetition 0
attr replication #0
attr resultdir altro-results
attr runnumber 22
attr seedset 22

scalar . 	alg 	2
scalar . 	buf 	8
scalar . 	delta 	0.6
scalar . 	ofedge 	2
scalar Torus3d_bub.timer 	#endTime 	0.009858436317933
scalar Torus3d_bub.timer 	#totalHops 	122250370
scalar Torus3d_bub.timer 	#totalPacks 	6291456
scalar Torus3d_bub.timer 	#totalDerouted 	4755272
scalar Torus3d_bub.timer 	#totalOutFlanked 	0
scalar Torus3d_bub.timer 	#totalCQRed 	4755272
scalar Torus3d_bub.timer 	#LB 	0.000786432
scalar Torus3d_bub.timer 	#ratio 	0.079772488723129
statistic Torus3d_bub.timer 	"Hop Times"
field count 6291456
field mean 0.00023232929293962
field stddev 0.0002636678959396
field sum 1461.6895240408
field sqrsum 0.77698002262907
field min 4.36859649e-07
field max 0.003262815666666
bin	-INF	0
bin	0	0
bin	7.12e-08	0
bin	1.424e-07	0
bin	2.136e-07	0
bin	2.848e-07	0
bin	3.56e-07	0
bin	4.272e-07	59
bin	4.984e-07	703
bin	5.696e-07	1817
bin	6.408e-07	2350
bin	7.12e-07	4048
bin	7.832e-07	6335
bin	8.544e-07	8387
bin	9.256e-07	10550
bin	9.968e-07	12002
bin	1.068e-06	13346
bin	1.1392e-06	14438
bin	1.2104e-06	15350
bin	1.2816e-06	16145
bin	1.3528e-06	17184
bin	1.424e-06	17659
bin	1.4952e-06	18463
bin	1.5664e-06	18671
bin	1.6376e-06	19321
bin	1.7088e-06	19690
bin	1.78e-06	20091
bin	1.8512e-06	20086
bin	1.9224e-06	20064
bin	1.9936e-06	20225
bin	2.0648e-06	20165
bin	2.136e-06	20110
bin	2.2072e-06	20081
bin	2.2784e-06	19736
bin	2.3496e-06	19053
bin	2.4208e-06	18999
bin	2.492e-06	18497
bin	2.5632e-06	17647
bin	2.6344e-06	16882
bin	2.7056e-06	16136
bin	2.7768e-06	15357
bin	2.848e-06	14738
bin	2.9192e-06	14185
bin	2.9904e-06	13317
bin	3.0616e-06	12763
bin	3.1328e-06	12159
bin	3.204e-06	11932
bin	3.2752e-06	11313
bin	3.3464e-06	10789
bin	3.4176e-06	10524
bin	3.4888e-06	10136
bin	3.56e-06	10091
bin	3.6312e-06	9598
bin	3.7024e-06	9280
bin	3.7736e-06	8909
bin	3.8448e-06	8554
bin	3.916e-06	8151
bin	3.9872e-06	8013
bin	4.0584e-06	7663
bin	4.1296e-06	7409
bin	4.2008e-06	7105
bin	4.272e-06	6958
bin	4.3432e-06	6739
bin	4.4144e-06	6287
bin	4.4856e-06	6181
bin	4.5568e-06	5981
bin	4.628e-06	6015
bin	4.6992e-06	5743
bin	4.7704e-06	5795
bin	4.8416e-06	5669
bin	4.9128e-06	5613
bin	4.984e-06	5426
bin	5.0552e-06	5141
bin	5.1264e-06	5231
bin	5.1976e-06	5004
bin	5.2688e-06	4954
bin	5.34e-06	4864
bin	5.4112e-06	4827
bin	5.4824e-06	4571
bin	5.5536e-06	4573
bin	5.6248e-06	4367
bin	5.696e-06	4324
bin	5.7672e-06	4176
bin	5.8384e-06	4237
bin	5.9096e-06	4118
bin	5.9808e-06	3975
bin	6.052e-06	3772
bin	6.1232e-06	3716
bin	6.1944e-06	3753
bin	6.2656e-06	3807
bin	6.3368e-06	3559
bin	6.408e-06	3555
bin	6.4792e-06	3640
bin	6.5504e-06	3571
bin	6.6216e-06	3469
bin	6.6928e-06	3428
bin	6.764e-06	3331
bin	6.8352e-06	3344
bin	6.9064e-06	3145
bin	6.9776e-06	3160
bin	7.0488e-06	3220
bin	7.12e-06	3235
bin	7.1912e-06	3114
bin	7.2624e-06	3069
bin	7.3336e-06	2994
bin	7.4048e-06	2927
bin	7.476e-06	2887
bin	7.5472e-06	2855
bin	7.6184e-06	2912
bin	7.6896e-06	2771
bin	7.7608e-06	2768
bin	7.832e-06	2747
bin	7.9032e-06	2655
bin	7.9744e-06	2558
bin	8.0456e-06	2542
bin	8.1168e-06	2569
bin	8.188e-06	2497
bin	8.2592e-06	2577
bin	8.3304e-06	2421
bin	8.4016e-06	2416
bin	8.4728e-06	2389
bin	8.544e-06	2358
bin	8.6152e-06	2320
bin	8.6864e-06	2204
bin	8.7576e-06	2241
bin	8.8288e-06	2170
bin	8.9e-06	2162
bin	8.9712e-06	2270
bin	9.0424e-06	2233
bin	9.1136e-06	2147
bin	9.1848e-06	2224
bin	9.256e-06	2105
bin	9.3272e-06	2071
bin	9.3984e-06	2039
bin	9.4696e-06	2139
bin	9.5408e-06	2115
bin	9.612e-06	2025
bin	9.6832e-06	2053
bin	9.7544e-06	2003
bin	9.8256e-06	1914
bin	9.8968e-06	1959
bin	9.968e-06	1899
bin	1.00392e-05	1901
bin	1.01104e-05	1889
bin	1.01816e-05	1882
bin	1.02528e-05	1910
bin	1.0324e-05	1875
bin	1.03952e-05	1838
bin	1.04664e-05	1854
bin	1.05376e-05	1837
bin	1.06088e-05	1780
bin	1.068e-05	1761
bin	1.07512e-05	1772
bin	1.08224e-05	1859
bin	1.08936e-05	1738
bin	1.09648e-05	1710
bin	1.1036e-05	1716
bin	1.11072e-05	1692
bin	1.11784e-05	1764
bin	1.12496e-05	1670
bin	1.13208e-05	1657
bin	1.1392e-05	1690
bin	1.14632e-05	1660
bin	1.15344e-05	1672
bin	1.16056e-05	1647
bin	1.16768e-05	1666
bin	1.1748e-05	1657
bin	1.18192e-05	1590
bin	1.18904e-05	1600
bin	1.19616e-05	1478
bin	1.20328e-05	1479
bin	1.2104e-05	1377
bin	1.21752e-05	1401
bin	1.22464e-05	1339
bin	1.23176e-05	1355
bin	1.23888e-05	1349
bin	1.246e-05	1309
bin	1.25312e-05	1337
bin	1.26024e-05	1390
bin	1.26736e-05	1332
bin	1.27448e-05	1416
bin	1.2816e-05	1370
bin	1.28872e-05	1388
bin	1.29584e-05	1425
bin	1.30296e-05	1362
bin	1.31008e-05	1384
bin	1.3172e-05	1325
bin	1.32432e-05	1337
bin	1.33144e-05	1344
bin	1.33856e-05	1321
bin	1.34568e-05	1374
bin	1.3528e-05	1309
bin	1.35992e-05	1327
bin	1.36704e-05	1337
bin	1.37416e-05	1232
bin	1.38128e-05	1261
bin	1.3884e-05	1203
bin	1.39552e-05	1160
bin	1.40264e-05	1217
bin	1.40976e-05	1228
bin	1.41688e-05	1259
bin	1.424e-05	1223
bin	1.43112e-05	1257
bin	1.43824e-05	1131
bin	1.44536e-05	1195
bin	1.45248e-05	1245
bin	1.4596e-05	1134
bin	1.46672e-05	1236
bin	1.47384e-05	1194
bin	1.48096e-05	1244
bin	1.48808e-05	1260
bin	1.4952e-05	1220
bin	1.50232e-05	1189
bin	1.50944e-05	1153
bin	1.51656e-05	1197
bin	1.52368e-05	1151
bin	1.5308e-05	1154
bin	1.53792e-05	1163
bin	1.54504e-05	1119
bin	1.55216e-05	1084
bin	1.55928e-05	1116
bin	1.5664e-05	1121
bin	1.57352e-05	1133
bin	1.58064e-05	1114
bin	1.58776e-05	1120
bin	1.59488e-05	1038
bin	1.602e-05	1064
bin	1.60912e-05	1048
bin	1.61624e-05	1035
bin	1.62336e-05	1008
bin	1.63048e-05	1054
bin	1.6376e-05	1028
bin	1.64472e-05	1102
bin	1.65184e-05	1061
bin	1.65896e-05	1109
bin	1.66608e-05	1070
bin	1.6732e-05	1131
bin	1.68032e-05	1054
bin	1.68744e-05	1060
bin	1.69456e-05	1077
bin	1.70168e-05	1078
bin	1.7088e-05	1075
bin	1.71592e-05	1032
bin	1.72304e-05	1061
bin	1.73016e-05	1055
bin	1.73728e-05	1052
bin	1.7444e-05	1010
bin	1.75152e-05	1025
bin	1.75864e-05	1024
bin	1.76576e-05	1009
bin	1.77288e-05	1030
bin	1.78e-05	1034
bin	1.78712e-05	962
bin	1.79424e-05	1036
bin	1.80136e-05	980
bin	1.80848e-05	1003
bin	1.8156e-05	936
bin	1.82272e-05	979
bin	1.82984e-05	964
bin	1.83696e-05	999
bin	1.84408e-05	961
bin	1.8512e-05	967
bin	1.85832e-05	991
bin	1.86544e-05	953
bin	1.87256e-05	971
bin	1.87968e-05	1015
bin	1.8868e-05	959
bin	1.89392e-05	1025
bin	1.90104e-05	948
bin	1.90816e-05	967
bin	1.91528e-05	902
bin	1.9224e-05	1006
bin	1.92952e-05	927
bin	1.93664e-05	927
bin	1.94376e-05	912
bin	1.95088e-05	932
bin	1.958e-05	924
bin	1.96512e-05	883
bin	1.97224e-05	879
bin	1.97936e-05	914
bin	1.98648e-05	912
bin	1.9936e-05	943
bin	2.00072e-05	1015
bin	2.00784e-05	972
bin	2.01496e-05	972
bin	2.02208e-05	907
bin	2.0292e-05	961
bin	2.03632e-05	934
bin	2.04344e-05	959
bin	2.05056e-05	959
bin	2.05768e-05	935
bin	2.0648e-05	976
bin	2.07192e-05	950
bin	2.07904e-05	949
bin	2.08616e-05	988
bin	2.09328e-05	998
bin	2.1004e-05	991
bin	2.10752e-05	989
bin	2.11464e-05	918
bin	2.12176e-05	928
bin	2.12888e-05	963
bin	2.136e-05	930
bin	2.14312e-05	863
bin	2.15024e-05	977
bin	2.15736e-05	977
bin	2.16448e-05	876
bin	2.1716e-05	929
bin	2.17872e-05	916
bin	2.18584e-05	935
bin	2.19296e-05	915
bin	2.20008e-05	960
bin	2.2072e-05	972
bin	2.21432e-05	925
bin	2.22144e-05	939
bin	2.22856e-05	870
bin	2.23568e-05	879
bin	2.2428e-05	893
bin	2.24992e-05	865
bin	2.25704e-05	887
bin	2.26416e-05	915
bin	2.27128e-05	891
bin	2.2784e-05	901
bin	2.28552e-05	897
bin	2.29264e-05	866
bin	2.29976e-05	885
bin	2.30688e-05	868
bin	2.314e-05	911
bin	2.32112e-05	903
bin	2.32824e-05	840
bin	2.33536e-05	918
bin	2.34248e-05	915
bin	2.3496e-05	827
bin	2.35672e-05	770
bin	2.36384e-05	770
bin	2.37096e-05	788
bin	2.37808e-05	796
bin	2.3852e-05	822
bin	2.39232e-05	771
bin	2.39944e-05	781
bin	2.40656e-05	836
bin	2.41368e-05	847
bin	2.4208e-05	800
bin	2.42792e-05	859
bin	2.43504e-05	842
bin	2.44216e-05	830
bin	2.44928e-05	760
bin	2.4564e-05	800
bin	2.46352e-05	789
bin	2.47064e-05	825
bin	2.47776e-05	825
bin	2.48488e-05	831
bin	2.492e-05	756
bin	2.49912e-05	791
bin	2.50624e-05	813
bin	2.51336e-05	818
bin	2.52048e-05	839
bin	2.5276e-05	776
bin	2.53472e-05	811
bin	2.54184e-05	802
bin	2.54896e-05	851
bin	2.55608e-05	782
bin	2.5632e-05	865
bin	2.57032e-05	806
bin	2.57744e-05	835
bin	2.58456e-05	817
bin	2.59168e-05	792
bin	2.5988e-05	821
bin	2.60592e-05	821
bin	2.61304e-05	799
bin	2.62016e-05	843
bin	2.62728e-05	810
bin	2.6344e-05	848
bin	2.64152e-05	870
bin	2.64864e-05	927
bin	2.65576e-05	851
bin	2.66288e-05	837
bin	2.67e-05	870
bin	2.67712e-05	805
bin	2.68424e-05	880
bin	2.69136e-05	874
bin	2.69848e-05	833
bin	2.7056e-05	800
bin	2.71272e-05	786
bin	2.71984e-05	800
bin	2.72696e-05	838
bin	2.73408e-05	827
bin	2.7412e-05	821
bin	2.74832e-05	822
bin	2.75544e-05	826
bin	2.76256e-05	860
bin	2.76968e-05	818
bin	2.7768e-05	790
bin	2.78392e-05	745
bin	2.79104e-05	712
bin	2.79816e-05	736
bin	2.80528e-05	726
bin	2.8124e-05	772
bin	2.81952e-05	779
bin	2.82664e-05	763
bin	2.83376e-05	739
bin	2.84088e-05	806
bin	2.848e-05	764
bin	2.85512e-05	860
bin	2.86224e-05	869
bin	2.86936e-05	869
bin	2.87648e-05	811
bin	2.8836e-05	798
bin	2.89072e-05	799
bin	2.89784e-05	763
bin	2.90496e-05	764
bin	2.91208e-05	735
bin	2.9192e-05	784
bin	2.92632e-05	815
bin	2.93344e-05	872
bin	2.94056e-05	846
bin	2.94768e-05	837
bin	2.9548e-05	846
bin	2.96192e-05	836
bin	2.96904e-05	781
bin	2.97616e-05	847
bin	2.98328e-05	799
bin	2.9904e-05	757
bin	2.99752e-05	781
bin	3.00464e-05	798
bin	3.01176e-05	784
bin	3.01888e-05	791
bin	3.026e-05	793
bin	3.03312e-05	758
bin	3.04024e-05	812
bin	3.04736e-05	854
bin	3.05448e-05	857
bin	3.0616e-05	853
bin	3.06872e-05	804
bin	3.07584e-05	832
bin	3.08296e-05	857
bin	3.09008e-05	806
bin	3.0972e-05	787
bin	3.10432e-05	809
bin	3.11144e-05	878
bin	3.11856e-05	855
bin	3.12568e-05	830
bin	3.1328e-05	898
bin	3.13992e-05	856
bin	3.14704e-05	874
bin	3.15416e-05	890
bin	3.16128e-05	866
bin	3.1684e-05	882
bin	3.17552e-05	904
bin	3.18264e-05	836
bin	3.18976e-05	845
bin	3.19688e-05	817
bin	3.204e-05	777
bin	3.21112e-05	805
bin	3.21824e-05	754
bin	3.22536e-05	827
bin	3.23248e-05	833
bin	3.2396e-05	827
bin	3.24672e-05	871
bin	3.25384e-05	786
bin	3.26096e-05	841
bin	3.26808e-05	820
bin	3.2752e-05	812
bin	3.28232e-05	756
bin	3.28944e-05	766
bin	3.29656e-05	806
bin	3.30368e-05	837
bin	3.3108e-05	750
bin	3.31792e-05	747
bin	3.32504e-05	723
bin	3.33216e-05	762
bin	3.33928e-05	769
bin	3.3464e-05	788
bin	3.35352e-05	741
bin	3.36064e-05	821
bin	3.36776e-05	737
bin	3.37488e-05	742
bin	3.382e-05	745
bin	3.38912e-05	736
bin	3.39624e-05	719
bin	3.40336e-05	695
bin	3.41048e-05	759
bin	3.4176e-05	733
bin	3.42472e-05	820
bin	3.43184e-05	791
bin	3.43896e-05	778
bin	3.44608e-05	839
bin	3.4532e-05	770
bin	3.46032e-05	757
bin	3.46744e-05	718
bin	3.47456e-05	730
bin	3.48168e-05	788
bin	3.4888e-05	731
bin	3.49592e-05	682
bin	3.50304e-05	695
bin	3.51016e-05	728
bin	3.51728e-05	748
bin	3.5244e-05	787
bin	3.53152e-05	730
bin	3.53864e-05	778
bin	3.54576e-05	826
bin	3.55288e-05	779
bin	3.56e-05	4945042
statistic Torus3d_bub.timer 	"Life Times"
field count 6291456
field mean 0.003769945547325
field stddev 0.0027744239509163
field sum 23718.446533391
field sqrsum 137.84527540788
field min 1.463666666e-06
field max 0.009811654651357
bin	-INF	0
bin	0	0
bin	8.544e-07	16
bin	1.7088e-06	104
bin	2.5632e-06	197
bin	3.4176e-06	404
bin	4.272e-06	550
bin	5.1264e-06	706
bin	5.9808e-06	759
bin	6.8352e-06	957
bin	7.6896e-06	1140
bin	8.544e-06	1400
bin	9.3984e-06	1626
bin	1.02528e-05	2179
bin	1.11072e-05	2540
bin	1.19616e-05	3051
bin	1.2816e-05	3400
bin	1.36704e-05	4030
bin	1.45248e-05	4501
bin	1.53792e-05	4965
bin	1.62336e-05	5321
bin	1.7088e-05	5655
bin	1.79424e-05	5883
bin	1.87968e-05	6162
bin	1.96512e-05	6366
bin	2.05056e-05	6585
bin	2.136e-05	6900
bin	2.22144e-05	6938
bin	2.30688e-05	7587
bin	2.39232e-05	7718
bin	2.47776e-05	8140
bin	2.5632e-05	8417
bin	2.64864e-05	8885
bin	2.73408e-05	9307
bin	2.81952e-05	9452
bin	2.90496e-05	9819
bin	2.9904e-05	10271
bin	3.07584e-05	10541
bin	3.16128e-05	10744
bin	3.24672e-05	10882
bin	3.33216e-05	11422
bin	3.4176e-05	11599
bin	3.50304e-05	11751
bin	3.58848e-05	11758
bin	3.67392e-05	12186
bin	3.75936e-05	12030
bin	3.8448e-05	12332
bin	3.93024e-05	12635
bin	4.01568e-05	12520
bin	4.10112e-05	12427
bin	4.18656e-05	12232
bin	4.272e-05	12126
bin	4.35744e-05	11815
bin	4.44288e-05	11606
bin	4.52832e-05	11962
bin	4.61376e-05	11986
bin	4.6992e-05	11796
bin	4.78464e-05	11753
bin	4.87008e-05	11901
bin	4.95552e-05	11832
bin	5.04096e-05	11832
bin	5.1264e-05	11633
bin	5.21184e-05	11448
bin	5.29728e-05	11305
bin	5.38272e-05	11034
bin	5.46816e-05	10691
bin	5.5536e-05	10566
bin	5.63904e-05	9933
bin	5.72448e-05	9681
bin	5.80992e-05	9389
bin	5.89536e-05	9078
bin	5.9808e-05	8826
bin	6.06624e-05	8488
bin	6.15168e-05	8290
bin	6.23712e-05	8014
bin	6.32256e-05	7643
bin	6.408e-05	7469
bin	6.49344e-05	7404
bin	6.57888e-05	7088
bin	6.66432e-05	6836
bin	6.74976e-05	6635
bin	6.8352e-05	6436
bin	6.92064e-05	6063
bin	7.00608e-05	6015
bin	7.09152e-05	5714
bin	7.17696e-05	5616
bin	7.2624e-05	5430
bin	7.34784e-05	5343
bin	7.43328e-05	5125
bin	7.51872e-05	5012
bin	7.60416e-05	4775
bin	7.6896e-05	4740
bin	7.77504e-05	4684
bin	7.86048e-05	4393
bin	7.94592e-05	4308
bin	8.03136e-05	4296
bin	8.1168e-05	4362
bin	8.20224e-05	4098
bin	8.28768e-05	4110
bin	8.37312e-05	4004
bin	8.45856e-05	3939
bin	8.544e-05	3899
bin	8.62944e-05	3815
bin	8.71488e-05	3657
bin	8.80032e-05	3694
bin	8.88576e-05	3608
bin	8.9712e-05	3546
bin	9.05664e-05	3509
bin	9.14208e-05	3546
bin	9.22752e-05	3458
bin	9.31296e-05	3477
bin	9.3984e-05	3467
bin	9.48384e-05	3420
bin	9.56928e-05	3443
bin	9.65472e-05	3359
bin	9.74016e-05	3361
bin	9.8256e-05	3438
bin	9.91104e-05	3489
bin	9.99648e-05	3464
bin	0.0001008192	3317
bin	0.0001016736	3367
bin	0.000102528	3253
bin	0.0001033824	3105
bin	0.0001042368	2964
bin	0.0001050912	3119
bin	0.0001059456	2994
bin	0.0001068	2911
bin	0.0001076544	2819
bin	0.0001085088	2776
bin	0.0001093632	2764
bin	0.0001102176	2585
bin	0.000111072	2610
bin	0.0001119264	2536
bin	0.0001127808	2466
bin	0.0001136352	2505
bin	0.0001144896	2414
bin	0.000115344	2352
bin	0.0001161984	2347
bin	0.0001170528	2214
bin	0.0001179072	2208
bin	0.0001187616	2187
bin	0.000119616	2159
bin	0.0001204704	2170
bin	0.0001213248	2105
bin	0.0001221792	2113
bin	0.0001230336	2031
bin	0.000123888	2103
bin	0.0001247424	2054
bin	0.0001255968	1947
bin	0.0001264512	1927
bin	0.0001273056	2000
bin	0.00012816	1975
bin	0.0001290144	1982
bin	0.0001298688	1955
bin	0.0001307232	1992
bin	0.0001315776	2004
bin	0.000132432	1939
bin	0.0001332864	2020
bin	0.0001341408	1955
bin	0.0001349952	1928
bin	0.0001358496	1944
bin	0.000136704	1923
bin	0.0001375584	1954
bin	0.0001384128	1948
bin	0.0001392672	1960
bin	0.0001401216	1966
bin	0.000140976	1979
bin	0.0001418304	1961
bin	0.0001426848	1894
bin	0.0001435392	1879
bin	0.0001443936	1858
bin	0.000145248	1827
bin	0.0001461024	1723
bin	0.0001469568	1787
bin	0.0001478112	1659
bin	0.0001486656	1721
bin	0.00014952	1718
bin	0.0001503744	1680
bin	0.0001512288	1613
bin	0.0001520832	1538
bin	0.0001529376	1586
bin	0.000153792	1517
bin	0.0001546464	1563
bin	0.0001555008	1557
bin	0.0001563552	1524
bin	0.0001572096	1463
bin	0.000158064	1454
bin	0.0001589184	1485
bin	0.0001597728	1478
bin	0.0001606272	1508
bin	0.0001614816	1406
bin	0.000162336	1425
bin	0.0001631904	1395
bin	0.0001640448	1435
bin	0.0001648992	1469
bin	0.0001657536	1446
bin	0.000166608	1367
bin	0.0001674624	1407
bin	0.0001683168	1288
bin	0.0001691712	1307
bin	0.0001700256	1412
bin	0.00017088	1353
bin	0.0001717344	1385
bin	0.0001725888	1251
bin	0.0001734432	1314
bin	0.0001742976	1384
bin	0.000175152	1279
bin	0.0001760064	1314
bin	0.0001768608	1279
bin	0.0001777152	1358
bin	0.0001785696	1303
bin	0.000179424	1353
bin	0.0001802784	1295
bin	0.0001811328	1263
bin	0.0001819872	1303
bin	0.0001828416	1259
bin	0.000183696	1258
bin	0.0001845504	1207
bin	0.0001854048	1173
bin	0.0001862592	1215
bin	0.0001871136	1144
bin	0.000187968	1246
bin	0.0001888224	1147
bin	0.0001896768	1220
bin	0.0001905312	1220
bin	0.0001913856	1245
bin	0.00019224	1179
bin	0.0001930944	1220
bin	0.0001939488	1164
bin	0.0001948032	1177
bin	0.0001956576	1118
bin	0.000196512	1128
bin	0.0001973664	1054
bin	0.0001982208	1064
bin	0.0001990752	1093
bin	0.0001999296	1062
bin	0.000200784	1061
bin	0.0002016384	985
bin	0.0002024928	1029
bin	0.0002033472	1050
bin	0.0002042016	1023
bin	0.000205056	997
bin	0.0002059104	980
bin	0.0002067648	956
bin	0.0002076192	983
bin	0.0002084736	987
bin	0.000209328	959
bin	0.0002101824	936
bin	0.0002110368	951
bin	0.0002118912	988
bin	0.0002127456	967
bin	0.0002136	951
bin	0.0002144544	911
bin	0.0002153088	958
bin	0.0002161632	969
bin	0.0002170176	926
bin	0.000217872	983
bin	0.0002187264	1007
bin	0.0002195808	986
bin	0.0002204352	1039
bin	0.0002212896	985
bin	0.000222144	1029
bin	0.0002229984	985
bin	0.0002238528	970
bin	0.0002247072	926
bin	0.0002255616	943
bin	0.000226416	984
bin	0.0002272704	966
bin	0.0002281248	914
bin	0.0002289792	910
bin	0.0002298336	951
bin	0.000230688	909
bin	0.0002315424	876
bin	0.0002323968	870
bin	0.0002332512	874
bin	0.0002341056	856
bin	0.00023496	843
bin	0.0002358144	816
bin	0.0002366688	854
bin	0.0002375232	830
bin	0.0002383776	799
bin	0.000239232	808
bin	0.0002400864	790
bin	0.0002409408	778
bin	0.0002417952	755
bin	0.0002426496	805
bin	0.000243504	791
bin	0.0002443584	822
bin	0.0002452128	824
bin	0.0002460672	861
bin	0.0002469216	806
bin	0.000247776	852
bin	0.0002486304	796
bin	0.0002494848	818
bin	0.0002503392	850
bin	0.0002511936	826
bin	0.000252048	818
bin	0.0002529024	800
bin	0.0002537568	809
bin	0.0002546112	757
bin	0.0002554656	802
bin	0.00025632	801
bin	0.0002571744	747
bin	0.0002580288	762
bin	0.0002588832	741
bin	0.0002597376	745
bin	0.000260592	754
bin	0.0002614464	737
bin	0.0002623008	804
bin	0.0002631552	755
bin	0.0002640096	749
bin	0.000264864	821
bin	0.0002657184	876
bin	0.0002665728	822
bin	0.0002674272	823
bin	0.0002682816	826
bin	0.000269136	800
bin	0.0002699904	798
bin	0.0002708448	759
bin	0.0002716992	802
bin	0.0002725536	786
bin	0.000273408	737
bin	0.0002742624	795
bin	0.0002751168	734
bin	0.0002759712	745
bin	0.0002768256	751
bin	0.00027768	713
bin	0.0002785344	755
bin	0.0002793888	730
bin	0.0002802432	708
bin	0.0002810976	692
bin	0.000281952	717
bin	0.0002828064	736
bin	0.0002836608	707
bin	0.0002845152	705
bin	0.0002853696	701
bin	0.000286224	711
bin	0.0002870784	701
bin	0.0002879328	717
bin	0.0002887872	679
bin	0.0002896416	723
bin	0.000290496	692
bin	0.0002913504	693
bin	0.0002922048	697
bin	0.0002930592	653
bin	0.0002939136	714
bin	0.000294768	736
bin	0.0002956224	695
bin	0.0002964768	676
bin	0.0002973312	670
bin	0.0002981856	690
bin	0.00029904	711
bin	0.0002998944	744
bin	0.0003007488	733
bin	0.0003016032	748
bin	0.0003024576	717
bin	0.000303312	703
bin	0.0003041664	716
bin	0.0003050208	732
bin	0.0003058752	709
bin	0.0003067296	718
bin	0.000307584	681
bin	0.0003084384	690
bin	0.0003092928	642
bin	0.0003101472	684
bin	0.0003110016	721
bin	0.000311856	646
bin	0.0003127104	643
bin	0.0003135648	656
bin	0.0003144192	657
bin	0.0003152736	624
bin	0.000316128	619
bin	0.0003169824	664
bin	0.0003178368	638
bin	0.0003186912	714
bin	0.0003195456	684
bin	0.0003204	664
bin	0.0003212544	684
bin	0.0003221088	674
bin	0.0003229632	719
bin	0.0003238176	644
bin	0.000324672	657
bin	0.0003255264	656
bin	0.0003263808	653
bin	0.0003272352	643
bin	0.0003280896	663
bin	0.000328944	615
bin	0.0003297984	647
bin	0.0003306528	639
bin	0.0003315072	608
bin	0.0003323616	601
bin	0.000333216	618
bin	0.0003340704	584
bin	0.0003349248	607
bin	0.0003357792	601
bin	0.0003366336	653
bin	0.000337488	687
bin	0.0003383424	631
bin	0.0003391968	650
bin	0.0003400512	661
bin	0.0003409056	656
bin	0.00034176	605
bin	0.0003426144	608
bin	0.0003434688	635
bin	0.0003443232	627
bin	0.0003451776	590
bin	0.000346032	636
bin	0.0003468864	645
bin	0.0003477408	600
bin	0.0003485952	630
bin	0.0003494496	611
bin	0.000350304	587
bin	0.0003511584	606
bin	0.0003520128	597
bin	0.0003528672	573
bin	0.0003537216	592
bin	0.000354576	607
bin	0.0003554304	584
bin	0.0003562848	544
bin	0.0003571392	561
bin	0.0003579936	593
bin	0.000358848	603
bin	0.0003597024	601
bin	0.0003605568	560
bin	0.0003614112	555
bin	0.0003622656	620
bin	0.00036312	612
bin	0.0003639744	602
bin	0.0003648288	552
bin	0.0003656832	589
bin	0.0003665376	574
bin	0.000367392	550
bin	0.0003682464	559
bin	0.0003691008	564
bin	0.0003699552	580
bin	0.0003708096	574
bin	0.000371664	611
bin	0.0003725184	609
bin	0.0003733728	645
bin	0.0003742272	598
bin	0.0003750816	670
bin	0.000375936	582
bin	0.0003767904	604
bin	0.0003776448	622
bin	0.0003784992	611
bin	0.0003793536	609
bin	0.000380208	600
bin	0.0003810624	580
bin	0.0003819168	614
bin	0.0003827712	592
bin	0.0003836256	615
bin	0.00038448	560
bin	0.0003853344	602
bin	0.0003861888	561
bin	0.0003870432	610
bin	0.0003878976	570
bin	0.000388752	538
bin	0.0003896064	577
bin	0.0003904608	570
bin	0.0003913152	557
bin	0.0003921696	552
bin	0.000393024	584
bin	0.0003938784	588
bin	0.0003947328	580
bin	0.0003955872	593
bin	0.0003964416	633
bin	0.000397296	575
bin	0.0003981504	602
bin	0.0003990048	586
bin	0.0003998592	571
bin	0.0004007136	571
bin	0.000401568	553
bin	0.0004024224	567
bin	0.0004032768	566
bin	0.0004041312	534
bin	0.0004049856	542
bin	0.00040584	547
bin	0.0004066944	545
bin	0.0004075488	551
bin	0.0004084032	572
bin	0.0004092576	558
bin	0.000410112	598
bin	0.0004109664	580
bin	0.0004118208	574
bin	0.0004126752	554
bin	0.0004135296	575
bin	0.000414384	543
bin	0.0004152384	558
bin	0.0004160928	551
bin	0.0004169472	547
bin	0.0004178016	554
bin	0.000418656	540
bin	0.0004195104	541
bin	0.0004203648	533
bin	0.0004212192	552
bin	0.0004220736	561
bin	0.000422928	571
bin	0.0004237824	564
bin	0.0004246368	529
bin	0.0004254912	548
bin	0.0004263456	572
bin	0.0004272	5106692
