version 2
run Bitcomplement-42-20120709-21:44:44-24933
attr alg 2
attr buf 8
attr configname Bitcomplement
attr datetime 20120709-21:44:44
attr delta 0.4
attr experiment Bitcomplement
attr ext false
attr inifile altro.ini
attr iterationvars "$buf=8, $ext=false, $ofedge=2, $delta=0.4, $alg=2"
attr iterationvars2 "$buf=8, $ext=false, $ofedge=2, $delta=0.4, $alg=2, $repetition=0"
attr measurement "$buf=8, $ext=false, $ofedge=2, $delta=0.4, $alg=2"
attr network Torus3d_bub
attr ofedge 2
attr processid 24933
attr repetition 0
attr replication #0
attr resultdir altro-results
attr runnumber 42
attr seedset 42

scalar . 	alg 	2
scalar . 	buf 	8
scalar . 	delta 	0.4
scalar . 	ofedge 	2
scalar Torus3d_bub.timer 	#endTime 	0.004548269666666
scalar Torus3d_bub.timer 	#totalHops 	118234038
scalar Torus3d_bub.timer 	#totalPacks 	6291456
scalar Torus3d_bub.timer 	#totalDerouted 	4421380
scalar Torus3d_bub.timer 	#totalOutFlanked 	0
scalar Torus3d_bub.timer 	#totalCQRed 	4421380
scalar Torus3d_bub.timer 	#LB 	0.000786432
scalar Torus3d_bub.timer 	#ratio 	0.17290795349355
statistic Torus3d_bub.timer 	"Hop Times"
field count 6291456
field mean 2.7224253994139e-05
field stddev 6.5629545328745e-05
field sum 171.28019613695
field sqrsum 0.031761764708117
field min 3.94142833e-07
field max 0.001504120666666
bin	-INF	0
bin	0	0
bin	7.12e-08	0
bin	1.424e-07	0
bin	2.136e-07	0
bin	2.848e-07	0
bin	3.56e-07	17
bin	4.272e-07	455
bin	4.984e-07	2705
bin	5.696e-07	5633
bin	6.408e-07	12091
bin	7.12e-07	23160
bin	7.832e-07	35897
bin	8.544e-07	47940
bin	9.256e-07	55297
bin	9.968e-07	59346
bin	1.068e-06	62789
bin	1.1392e-06	64928
bin	1.2104e-06	67397
bin	1.2816e-06	69248
bin	1.3528e-06	70343
bin	1.424e-06	71631
bin	1.4952e-06	73508
bin	1.5664e-06	74525
bin	1.6376e-06	76282
bin	1.7088e-06	78487
bin	1.78e-06	79952
bin	1.8512e-06	81784
bin	1.9224e-06	82638
bin	1.9936e-06	83779
bin	2.0648e-06	84984
bin	2.136e-06	85412
bin	2.2072e-06	85109
bin	2.2784e-06	85122
bin	2.3496e-06	83243
bin	2.4208e-06	82689
bin	2.492e-06	80867
bin	2.5632e-06	79684
bin	2.6344e-06	79016
bin	2.7056e-06	76027
bin	2.7768e-06	75179
bin	2.848e-06	73955
bin	2.9192e-06	71691
bin	2.9904e-06	69635
bin	3.0616e-06	67927
bin	3.1328e-06	66695
bin	3.204e-06	64547
bin	3.2752e-06	62587
bin	3.3464e-06	60174
bin	3.4176e-06	58225
bin	3.4888e-06	55828
bin	3.56e-06	54448
bin	3.6312e-06	52896
bin	3.7024e-06	49574
bin	3.7736e-06	48232
bin	3.8448e-06	46264
bin	3.916e-06	44278
bin	3.9872e-06	42209
bin	4.0584e-06	41110
bin	4.1296e-06	39753
bin	4.2008e-06	38380
bin	4.272e-06	36420
bin	4.3432e-06	34991
bin	4.4144e-06	33536
bin	4.4856e-06	32297
bin	4.5568e-06	31378
bin	4.628e-06	30506
bin	4.6992e-06	29503
bin	4.7704e-06	28770
bin	4.8416e-06	27306
bin	4.9128e-06	25793
bin	4.984e-06	24791
bin	5.0552e-06	23832
bin	5.1264e-06	23432
bin	5.1976e-06	22835
bin	5.2688e-06	22645
bin	5.34e-06	21795
bin	5.4112e-06	21386
bin	5.4824e-06	20475
bin	5.5536e-06	19983
bin	5.6248e-06	19207
bin	5.696e-06	18542
bin	5.7672e-06	18030
bin	5.8384e-06	17703
bin	5.9096e-06	17316
bin	5.9808e-06	16852
bin	6.052e-06	16645
bin	6.1232e-06	15953
bin	6.1944e-06	15577
bin	6.2656e-06	15383
bin	6.3368e-06	15063
bin	6.408e-06	14367
bin	6.4792e-06	14000
bin	6.5504e-06	13663
bin	6.6216e-06	13050
bin	6.6928e-06	12747
bin	6.764e-06	12428
bin	6.8352e-06	12327
bin	6.9064e-06	12074
bin	6.9776e-06	12144
bin	7.0488e-06	11839
bin	7.12e-06	11329
bin	7.1912e-06	11228
bin	7.2624e-06	10949
bin	7.3336e-06	10743
bin	7.4048e-06	10461
bin	7.476e-06	10154
bin	7.5472e-06	10034
bin	7.6184e-06	9798
bin	7.6896e-06	9784
bin	7.7608e-06	9609
bin	7.832e-06	9251
bin	7.9032e-06	9088
bin	7.9744e-06	8968
bin	8.0456e-06	8684
bin	8.1168e-06	8232
bin	8.188e-06	8017
bin	8.2592e-06	8133
bin	8.3304e-06	7731
bin	8.4016e-06	7859
bin	8.4728e-06	7762
bin	8.544e-06	7833
bin	8.6152e-06	7746
bin	8.6864e-06	7603
bin	8.7576e-06	7466
bin	8.8288e-06	7130
bin	8.9e-06	7239
bin	8.9712e-06	7107
bin	9.0424e-06	6726
bin	9.1136e-06	6686
bin	9.1848e-06	6673
bin	9.256e-06	6501
bin	9.3272e-06	6348
bin	9.3984e-06	6270
bin	9.4696e-06	6091
bin	9.5408e-06	5914
bin	9.612e-06	5898
bin	9.6832e-06	5937
bin	9.7544e-06	5858
bin	9.8256e-06	5725
bin	9.8968e-06	5623
bin	9.968e-06	5530
bin	1.00392e-05	5326
bin	1.01104e-05	5356
bin	1.01816e-05	5415
bin	1.02528e-05	5119
bin	1.0324e-05	5170
bin	1.03952e-05	4913
bin	1.04664e-05	4876
bin	1.05376e-05	4744
bin	1.06088e-05	4696
bin	1.068e-05	4572
bin	1.07512e-05	4519
bin	1.08224e-05	4478
bin	1.08936e-05	4475
bin	1.09648e-05	4511
bin	1.1036e-05	4439
bin	1.11072e-05	4413
bin	1.11784e-05	4429
bin	1.12496e-05	4424
bin	1.13208e-05	4302
bin	1.1392e-05	4328
bin	1.14632e-05	4241
bin	1.15344e-05	4161
bin	1.16056e-05	4064
bin	1.16768e-05	4045
bin	1.1748e-05	4023
bin	1.18192e-05	3948
bin	1.18904e-05	3934
bin	1.19616e-05	3862
bin	1.20328e-05	3886
bin	1.2104e-05	3779
bin	1.21752e-05	3723
bin	1.22464e-05	3721
bin	1.23176e-05	3597
bin	1.23888e-05	3532
bin	1.246e-05	3537
bin	1.25312e-05	3434
bin	1.26024e-05	3426
bin	1.26736e-05	3403
bin	1.27448e-05	3537
bin	1.2816e-05	3409
bin	1.28872e-05	3450
bin	1.29584e-05	3495
bin	1.30296e-05	3286
bin	1.31008e-05	3234
bin	1.3172e-05	3295
bin	1.32432e-05	3129
bin	1.33144e-05	3034
bin	1.33856e-05	3132
bin	1.34568e-05	2999
bin	1.3528e-05	3009
bin	1.35992e-05	3095
bin	1.36704e-05	3019
bin	1.37416e-05	2994
bin	1.38128e-05	3008
bin	1.3884e-05	3022
bin	1.39552e-05	3030
bin	1.40264e-05	2893
bin	1.40976e-05	2827
bin	1.41688e-05	2865
bin	1.424e-05	2892
bin	1.43112e-05	2797
bin	1.43824e-05	2720
bin	1.44536e-05	2778
bin	1.45248e-05	2764
bin	1.4596e-05	2753
bin	1.46672e-05	2645
bin	1.47384e-05	2565
bin	1.48096e-05	2511
bin	1.48808e-05	2611
bin	1.4952e-05	2559
bin	1.50232e-05	2683
bin	1.50944e-05	2570
bin	1.51656e-05	2657
bin	1.52368e-05	2559
bin	1.5308e-05	2645
bin	1.53792e-05	2554
bin	1.54504e-05	2466
bin	1.55216e-05	2440
bin	1.55928e-05	2383
bin	1.5664e-05	2381
bin	1.57352e-05	2405
bin	1.58064e-05	2387
bin	1.58776e-05	2357
bin	1.59488e-05	2345
bin	1.602e-05	2350
bin	1.60912e-05	2249
bin	1.61624e-05	2364
bin	1.62336e-05	2377
bin	1.63048e-05	2208
bin	1.6376e-05	2244
bin	1.64472e-05	2268
bin	1.65184e-05	2250
bin	1.65896e-05	2247
bin	1.66608e-05	2255
bin	1.6732e-05	2225
bin	1.68032e-05	2236
bin	1.68744e-05	2273
bin	1.69456e-05	2225
bin	1.70168e-05	2164
bin	1.7088e-05	2096
bin	1.71592e-05	2184
bin	1.72304e-05	2148
bin	1.73016e-05	2174
bin	1.73728e-05	2138
bin	1.7444e-05	2096
bin	1.75152e-05	2068
bin	1.75864e-05	2098
bin	1.76576e-05	2121
bin	1.77288e-05	2015
bin	1.78e-05	1930
bin	1.78712e-05	2025
bin	1.79424e-05	1971
bin	1.80136e-05	2029
bin	1.80848e-05	1976
bin	1.8156e-05	1964
bin	1.82272e-05	2004
bin	1.82984e-05	1998
bin	1.83696e-05	1988
bin	1.84408e-05	1894
bin	1.8512e-05	1958
bin	1.85832e-05	1906
bin	1.86544e-05	1914
bin	1.87256e-05	1954
bin	1.87968e-05	1925
bin	1.8868e-05	1864
bin	1.89392e-05	1888
bin	1.90104e-05	1825
bin	1.90816e-05	1762
bin	1.91528e-05	1903
bin	1.9224e-05	1828
bin	1.92952e-05	1865
bin	1.93664e-05	1864
bin	1.94376e-05	1749
bin	1.95088e-05	1789
bin	1.958e-05	1759
bin	1.96512e-05	1703
bin	1.97224e-05	1709
bin	1.97936e-05	1704
bin	1.98648e-05	1726
bin	1.9936e-05	1658
bin	2.00072e-05	1702
bin	2.00784e-05	1744
bin	2.01496e-05	1694
bin	2.02208e-05	1616
bin	2.0292e-05	1602
bin	2.03632e-05	1651
bin	2.04344e-05	1697
bin	2.05056e-05	1702
bin	2.05768e-05	1710
bin	2.0648e-05	1756
bin	2.07192e-05	1800
bin	2.07904e-05	1639
bin	2.08616e-05	1668
bin	2.09328e-05	1809
bin	2.1004e-05	1728
bin	2.10752e-05	1631
bin	2.11464e-05	1684
bin	2.12176e-05	1647
bin	2.12888e-05	1602
bin	2.136e-05	1545
bin	2.14312e-05	1470
bin	2.15024e-05	1501
bin	2.15736e-05	1441
bin	2.16448e-05	1527
bin	2.1716e-05	1476
bin	2.17872e-05	1544
bin	2.18584e-05	1569
bin	2.19296e-05	1587
bin	2.20008e-05	1522
bin	2.2072e-05	1537
bin	2.21432e-05	1583
bin	2.22144e-05	1511
bin	2.22856e-05	1547
bin	2.23568e-05	1520
bin	2.2428e-05	1525
bin	2.24992e-05	1547
bin	2.25704e-05	1487
bin	2.26416e-05	1511
bin	2.27128e-05	1451
bin	2.2784e-05	1465
bin	2.28552e-05	1503
bin	2.29264e-05	1506
bin	2.29976e-05	1425
bin	2.30688e-05	1473
bin	2.314e-05	1449
bin	2.32112e-05	1476
bin	2.32824e-05	1419
bin	2.33536e-05	1379
bin	2.34248e-05	1368
bin	2.3496e-05	1426
bin	2.35672e-05	1491
bin	2.36384e-05	1401
bin	2.37096e-05	1402
bin	2.37808e-05	1356
bin	2.3852e-05	1362
bin	2.39232e-05	1365
bin	2.39944e-05	1428
bin	2.40656e-05	1403
bin	2.41368e-05	1354
bin	2.4208e-05	1313
bin	2.42792e-05	1331
bin	2.43504e-05	1294
bin	2.44216e-05	1345
bin	2.44928e-05	1420
bin	2.4564e-05	1326
bin	2.46352e-05	1359
bin	2.47064e-05	1338
bin	2.47776e-05	1441
bin	2.48488e-05	1299
bin	2.492e-05	1305
bin	2.49912e-05	1361
bin	2.50624e-05	1337
bin	2.51336e-05	1330
bin	2.52048e-05	1325
bin	2.5276e-05	1316
bin	2.53472e-05	1306
bin	2.54184e-05	1299
bin	2.54896e-05	1367
bin	2.55608e-05	1333
bin	2.5632e-05	1309
bin	2.57032e-05	1321
bin	2.57744e-05	1377
bin	2.58456e-05	1354
bin	2.59168e-05	1274
bin	2.5988e-05	1373
bin	2.60592e-05	1326
bin	2.61304e-05	1245
bin	2.62016e-05	1346
bin	2.62728e-05	1258
bin	2.6344e-05	1234
bin	2.64152e-05	1295
bin	2.64864e-05	1252
bin	2.65576e-05	1259
bin	2.66288e-05	1336
bin	2.67e-05	1318
bin	2.67712e-05	1275
bin	2.68424e-05	1237
bin	2.69136e-05	1167
bin	2.69848e-05	1110
bin	2.7056e-05	1129
bin	2.71272e-05	1170
bin	2.71984e-05	1235
bin	2.72696e-05	1205
bin	2.73408e-05	1234
bin	2.7412e-05	1220
bin	2.74832e-05	1186
bin	2.75544e-05	1171
bin	2.76256e-05	1178
bin	2.76968e-05	1235
bin	2.7768e-05	1242
bin	2.78392e-05	1222
bin	2.79104e-05	1195
bin	2.79816e-05	1187
bin	2.80528e-05	1221
bin	2.8124e-05	1245
bin	2.81952e-05	1219
bin	2.82664e-05	1251
bin	2.83376e-05	1229
bin	2.84088e-05	1160
bin	2.848e-05	1189
bin	2.85512e-05	1165
bin	2.86224e-05	1209
bin	2.86936e-05	1181
bin	2.87648e-05	1206
bin	2.8836e-05	1267
bin	2.89072e-05	1127
bin	2.89784e-05	1116
bin	2.90496e-05	1086
bin	2.91208e-05	1040
bin	2.9192e-05	1067
bin	2.92632e-05	1100
bin	2.93344e-05	1085
bin	2.94056e-05	1120
bin	2.94768e-05	1145
bin	2.9548e-05	1104
bin	2.96192e-05	1113
bin	2.96904e-05	1119
bin	2.97616e-05	1019
bin	2.98328e-05	1004
bin	2.9904e-05	1026
bin	2.99752e-05	1044
bin	3.00464e-05	1061
bin	3.01176e-05	1142
bin	3.01888e-05	1145
bin	3.026e-05	1116
bin	3.03312e-05	1122
bin	3.04024e-05	1082
bin	3.04736e-05	1056
bin	3.05448e-05	1072
bin	3.0616e-05	1108
bin	3.06872e-05	1020
bin	3.07584e-05	1075
bin	3.08296e-05	1012
bin	3.09008e-05	970
bin	3.0972e-05	1017
bin	3.10432e-05	1031
bin	3.11144e-05	1026
bin	3.11856e-05	1029
bin	3.12568e-05	1025
bin	3.1328e-05	997
bin	3.13992e-05	1004
bin	3.14704e-05	982
bin	3.15416e-05	913
bin	3.16128e-05	959
bin	3.1684e-05	932
bin	3.17552e-05	919
bin	3.18264e-05	894
bin	3.18976e-05	867
bin	3.19688e-05	902
bin	3.204e-05	879
bin	3.21112e-05	935
bin	3.21824e-05	953
bin	3.22536e-05	987
bin	3.23248e-05	950
bin	3.2396e-05	908
bin	3.24672e-05	911
bin	3.25384e-05	991
bin	3.26096e-05	933
bin	3.26808e-05	932
bin	3.2752e-05	995
bin	3.28232e-05	992
bin	3.28944e-05	958
bin	3.29656e-05	968
bin	3.30368e-05	1014
bin	3.3108e-05	960
bin	3.31792e-05	1001
bin	3.32504e-05	998
bin	3.33216e-05	983
bin	3.33928e-05	971
bin	3.3464e-05	904
bin	3.35352e-05	910
bin	3.36064e-05	997
bin	3.36776e-05	955
bin	3.37488e-05	929
bin	3.382e-05	992
bin	3.38912e-05	962
bin	3.39624e-05	954
bin	3.40336e-05	979
bin	3.41048e-05	936
bin	3.4176e-05	935
bin	3.42472e-05	1017
bin	3.43184e-05	981
bin	3.43896e-05	936
bin	3.44608e-05	886
bin	3.4532e-05	970
bin	3.46032e-05	963
bin	3.46744e-05	1000
bin	3.47456e-05	983
bin	3.48168e-05	1012
bin	3.4888e-05	947
bin	3.49592e-05	958
bin	3.50304e-05	977
bin	3.51016e-05	939
bin	3.51728e-05	954
bin	3.5244e-05	986
bin	3.53152e-05	1025
bin	3.53864e-05	1041
bin	3.54576e-05	995
bin	3.55288e-05	1004
bin	3.56e-05	1178732
statistic Torus3d_bub.timer 	"Life Times"
field count 6291456
field mean 0.0004166021147889
field stddev 0.00074318543740779
field sum 2621.0338747013
field sqrsum 4.5668535860375
field min 1.250333333e-06
field max 0.004547478666666
bin	-INF	0
bin	0	0
bin	8.544e-07	66
bin	1.7088e-06	112
bin	2.5632e-06	327
bin	3.4176e-06	618
bin	4.272e-06	986
bin	5.1264e-06	1436
bin	5.9808e-06	2452
bin	6.8352e-06	3463
bin	7.6896e-06	5003
bin	8.544e-06	6874
bin	9.3984e-06	8718
bin	1.02528e-05	11108
bin	1.11072e-05	13439
bin	1.19616e-05	16385
bin	1.2816e-05	19385
bin	1.36704e-05	22007
bin	1.45248e-05	24139
bin	1.53792e-05	26647
bin	1.62336e-05	28241
bin	1.7088e-05	29390
bin	1.79424e-05	31065
bin	1.87968e-05	31346
bin	1.96512e-05	31949
bin	2.05056e-05	32274
bin	2.136e-05	32119
bin	2.22144e-05	32307
bin	2.30688e-05	32922
bin	2.39232e-05	32929
bin	2.47776e-05	33943
bin	2.5632e-05	34888
bin	2.64864e-05	36273
bin	2.73408e-05	37937
bin	2.81952e-05	38956
bin	2.90496e-05	40399
bin	2.9904e-05	42103
bin	3.07584e-05	42873
bin	3.16128e-05	44163
bin	3.24672e-05	45005
bin	3.33216e-05	45973
bin	3.4176e-05	46800
bin	3.50304e-05	47469
bin	3.58848e-05	48706
bin	3.67392e-05	49171
bin	3.75936e-05	49704
bin	3.8448e-05	50322
bin	3.93024e-05	50603
bin	4.01568e-05	51208
bin	4.10112e-05	51517
bin	4.18656e-05	52157
bin	4.272e-05	52966
bin	4.35744e-05	53418
bin	4.44288e-05	53236
bin	4.52832e-05	54128
bin	4.61376e-05	54532
bin	4.6992e-05	54322
bin	4.78464e-05	55260
bin	4.87008e-05	55689
bin	4.95552e-05	56002
bin	5.04096e-05	56209
bin	5.1264e-05	56337
bin	5.21184e-05	56841
bin	5.29728e-05	57107
bin	5.38272e-05	56763
bin	5.46816e-05	57208
bin	5.5536e-05	57186
bin	5.63904e-05	57273
bin	5.72448e-05	57611
bin	5.80992e-05	57888
bin	5.89536e-05	57384
bin	5.9808e-05	56947
bin	6.06624e-05	56611
bin	6.15168e-05	56437
bin	6.23712e-05	52583
bin	6.32256e-05	49320
bin	6.408e-05	46717
bin	6.49344e-05	45008
bin	6.57888e-05	43559
bin	6.66432e-05	41974
bin	6.74976e-05	40363
bin	6.8352e-05	39566
bin	6.92064e-05	38835
bin	7.00608e-05	37356
bin	7.09152e-05	36600
bin	7.17696e-05	36104
bin	7.2624e-05	34786
bin	7.34784e-05	33154
bin	7.43328e-05	31668
bin	7.51872e-05	29907
bin	7.60416e-05	28511
bin	7.6896e-05	27072
bin	7.77504e-05	25741
bin	7.86048e-05	24635
bin	7.94592e-05	24043
bin	8.03136e-05	23072
bin	8.1168e-05	22874
bin	8.20224e-05	22172
bin	8.28768e-05	21581
bin	8.37312e-05	20931
bin	8.45856e-05	20689
bin	8.544e-05	19696
bin	8.62944e-05	19120
bin	8.71488e-05	18411
bin	8.80032e-05	18029
bin	8.88576e-05	17128
bin	8.9712e-05	16601
bin	9.05664e-05	15599
bin	9.14208e-05	15061
bin	9.22752e-05	14620
bin	9.31296e-05	13761
bin	9.3984e-05	13358
bin	9.48384e-05	12877
bin	9.56928e-05	12331
bin	9.65472e-05	12037
bin	9.74016e-05	11739
bin	9.8256e-05	11506
bin	9.91104e-05	10962
bin	9.99648e-05	10948
bin	0.0001008192	10652
bin	0.0001016736	10546
bin	0.000102528	10488
bin	0.0001033824	10242
bin	0.0001042368	10042
bin	0.0001050912	9724
bin	0.0001059456	9840
bin	0.0001068	9780
bin	0.0001076544	9602
bin	0.0001085088	9569
bin	0.0001093632	9428
bin	0.0001102176	9007
bin	0.000111072	9379
bin	0.0001119264	9144
bin	0.0001127808	9083
bin	0.0001136352	9103
bin	0.0001144896	9103
bin	0.000115344	9161
bin	0.0001161984	9088
bin	0.0001170528	8915
bin	0.0001179072	8642
bin	0.0001187616	8802
bin	0.000119616	8898
bin	0.0001204704	8780
bin	0.0001213248	8664
bin	0.0001221792	8849
bin	0.0001230336	8798
bin	0.000123888	8697
bin	0.0001247424	8350
bin	0.0001255968	8211
bin	0.0001264512	8208
bin	0.0001273056	8134
bin	0.00012816	8199
bin	0.0001290144	8132
bin	0.0001298688	8204
bin	0.0001307232	8163
bin	0.0001315776	8151
bin	0.000132432	8151
bin	0.0001332864	7874
bin	0.0001341408	7764
bin	0.0001349952	7686
bin	0.0001358496	7419
bin	0.000136704	7237
bin	0.0001375584	6918
bin	0.0001384128	6792
bin	0.0001392672	6636
bin	0.0001401216	6519
bin	0.000140976	6236
bin	0.0001418304	6269
bin	0.0001426848	5920
bin	0.0001435392	5934
bin	0.0001443936	5737
bin	0.000145248	5777
bin	0.0001461024	5651
bin	0.0001469568	5548
bin	0.0001478112	5404
bin	0.0001486656	5321
bin	0.00014952	5086
bin	0.0001503744	4965
bin	0.0001512288	4874
bin	0.0001520832	4847
bin	0.0001529376	4697
bin	0.000153792	4448
bin	0.0001546464	4428
bin	0.0001555008	4287
bin	0.0001563552	4311
bin	0.0001572096	4144
bin	0.000158064	4057
bin	0.0001589184	3995
bin	0.0001597728	3821
bin	0.0001606272	3812
bin	0.0001614816	3820
bin	0.000162336	3769
bin	0.0001631904	3630
bin	0.0001640448	3593
bin	0.0001648992	3440
bin	0.0001657536	3623
bin	0.000166608	3477
bin	0.0001674624	3488
bin	0.0001683168	3541
bin	0.0001691712	3400
bin	0.0001700256	3504
bin	0.00017088	3424
bin	0.0001717344	3500
bin	0.0001725888	3363
bin	0.0001734432	3328
bin	0.0001742976	3466
bin	0.000175152	3424
bin	0.0001760064	3346
bin	0.0001768608	3357
bin	0.0001777152	3368
bin	0.0001785696	3396
bin	0.000179424	3464
bin	0.0001802784	3358
bin	0.0001811328	3434
bin	0.0001819872	3463
bin	0.0001828416	3503
bin	0.000183696	3538
bin	0.0001845504	3580
bin	0.0001854048	3502
bin	0.0001862592	3448
bin	0.0001871136	3474
bin	0.000187968	3408
bin	0.0001888224	3427
bin	0.0001896768	3373
bin	0.0001905312	3483
bin	0.0001913856	3480
bin	0.00019224	3405
bin	0.0001930944	3433
bin	0.0001939488	3451
bin	0.0001948032	3413
bin	0.0001956576	3298
bin	0.000196512	3242
bin	0.0001973664	3283
bin	0.0001982208	3119
bin	0.0001990752	3062
bin	0.0001999296	2988
bin	0.000200784	2825
bin	0.0002016384	2822
bin	0.0002024928	2779
bin	0.0002033472	2732
bin	0.0002042016	2718
bin	0.000205056	2747
bin	0.0002059104	2648
bin	0.0002067648	2756
bin	0.0002076192	2542
bin	0.0002084736	2574
bin	0.000209328	2490
bin	0.0002101824	2500
bin	0.0002110368	2484
bin	0.0002118912	2495
bin	0.0002127456	2377
bin	0.0002136	2312
bin	0.0002144544	2297
bin	0.0002153088	2223
bin	0.0002161632	2226
bin	0.0002170176	2186
bin	0.000217872	2065
bin	0.0002187264	2144
bin	0.0002195808	2032
bin	0.0002204352	2050
bin	0.0002212896	1970
bin	0.000222144	1961
bin	0.0002229984	1993
bin	0.0002238528	1960
bin	0.0002247072	1989
bin	0.0002255616	1920
bin	0.000226416	1919
bin	0.0002272704	1937
bin	0.0002281248	1836
bin	0.0002289792	1861
bin	0.0002298336	1855
bin	0.000230688	1812
bin	0.0002315424	1841
bin	0.0002323968	1885
bin	0.0002332512	1858
bin	0.0002341056	1846
bin	0.00023496	1903
bin	0.0002358144	1868
bin	0.0002366688	1904
bin	0.0002375232	1869
bin	0.0002383776	1854
bin	0.000239232	1833
bin	0.0002400864	1763
bin	0.0002409408	1830
bin	0.0002417952	1841
bin	0.0002426496	1859
bin	0.000243504	1981
bin	0.0002443584	1985
bin	0.0002452128	1979
bin	0.0002460672	1992
bin	0.0002469216	1930
bin	0.000247776	1879
bin	0.0002486304	1955
bin	0.0002494848	1880
bin	0.0002503392	1961
bin	0.0002511936	1932
bin	0.000252048	2006
bin	0.0002529024	1973
bin	0.0002537568	1953
bin	0.0002546112	1977
bin	0.0002554656	1936
bin	0.00025632	1942
bin	0.0002571744	1926
bin	0.0002580288	1890
bin	0.0002588832	1909
bin	0.0002597376	1795
bin	0.000260592	1798
bin	0.0002614464	1852
bin	0.0002623008	1789
bin	0.0002631552	1683
bin	0.0002640096	1763
bin	0.000264864	1718
bin	0.0002657184	1639
bin	0.0002665728	1587
bin	0.0002674272	1581
bin	0.0002682816	1619
bin	0.000269136	1617
bin	0.0002699904	1589
bin	0.0002708448	1542
bin	0.0002716992	1515
bin	0.0002725536	1614
bin	0.000273408	1521
bin	0.0002742624	1571
bin	0.0002751168	1498
bin	0.0002759712	1527
bin	0.0002768256	1517
bin	0.00027768	1395
bin	0.0002785344	1461
bin	0.0002793888	1334
bin	0.0002802432	1356
bin	0.0002810976	1291
bin	0.000281952	1318
bin	0.0002828064	1271
bin	0.0002836608	1270
bin	0.0002845152	1291
bin	0.0002853696	1332
bin	0.000286224	1205
bin	0.0002870784	1190
bin	0.0002879328	1241
bin	0.0002887872	1317
bin	0.0002896416	1236
bin	0.000290496	1242
bin	0.0002913504	1290
bin	0.0002922048	1369
bin	0.0002930592	1268
bin	0.0002939136	1349
bin	0.000294768	1351
bin	0.0002956224	1297
bin	0.0002964768	1273
bin	0.0002973312	1217
bin	0.0002981856	1300
bin	0.00029904	1270
bin	0.0002998944	1277
bin	0.0003007488	1297
bin	0.0003016032	1258
bin	0.0003024576	1265
bin	0.000303312	1331
bin	0.0003041664	1271
bin	0.0003050208	1306
bin	0.0003058752	1272
bin	0.0003067296	1315
bin	0.000307584	1356
bin	0.0003084384	1339
bin	0.0003092928	1270
bin	0.0003101472	1316
bin	0.0003110016	1307
bin	0.000311856	1317
bin	0.0003127104	1315
bin	0.0003135648	1357
bin	0.0003144192	1328
bin	0.0003152736	1377
bin	0.000316128	1285
bin	0.0003169824	1296
bin	0.0003178368	1362
bin	0.0003186912	1299
bin	0.0003195456	1276
bin	0.0003204	1198
bin	0.0003212544	1252
bin	0.0003221088	1283
bin	0.0003229632	1211
bin	0.0003238176	1225
bin	0.000324672	1196
bin	0.0003255264	1212
bin	0.0003263808	1203
bin	0.0003272352	1180
bin	0.0003280896	1191
bin	0.000328944	1164
bin	0.0003297984	1144
bin	0.0003306528	1172
bin	0.0003315072	1166
bin	0.0003323616	1149
bin	0.000333216	1136
bin	0.0003340704	1116
bin	0.0003349248	1159
bin	0.0003357792	1118
bin	0.0003366336	1100
bin	0.000337488	1054
bin	0.0003383424	1071
bin	0.0003391968	1011
bin	0.0003400512	1046
bin	0.0003409056	1057
bin	0.00034176	1039
bin	0.0003426144	1003
bin	0.0003434688	1010
bin	0.0003443232	1055
bin	0.0003451776	1047
bin	0.000346032	994
bin	0.0003468864	1060
bin	0.0003477408	1053
bin	0.0003485952	1013
bin	0.0003494496	1042
bin	0.000350304	1035
bin	0.0003511584	964
bin	0.0003520128	1064
bin	0.0003528672	1056
bin	0.0003537216	1012
bin	0.000354576	1073
bin	0.0003554304	991
bin	0.0003562848	1018
bin	0.0003571392	938
bin	0.0003579936	953
bin	0.000358848	967
bin	0.0003597024	961
bin	0.0003605568	990
bin	0.0003614112	974
bin	0.0003622656	1022
bin	0.00036312	1012
bin	0.0003639744	1020
bin	0.0003648288	963
bin	0.0003656832	1043
bin	0.0003665376	984
bin	0.000367392	1070
bin	0.0003682464	1127
bin	0.0003691008	1029
bin	0.0003699552	1045
bin	0.0003708096	1018
bin	0.000371664	1039
bin	0.0003725184	1106
bin	0.0003733728	1033
bin	0.0003742272	1090
bin	0.0003750816	1079
bin	0.000375936	1083
bin	0.0003767904	1074
bin	0.0003776448	1063
bin	0.0003784992	1048
bin	0.0003793536	1112
bin	0.000380208	1065
bin	0.0003810624	1012
bin	0.0003819168	998
bin	0.0003827712	1053
bin	0.0003836256	989
bin	0.00038448	980
bin	0.0003853344	998
bin	0.0003861888	968
bin	0.0003870432	892
bin	0.0003878976	998
bin	0.000388752	942
bin	0.0003896064	939
bin	0.0003904608	948
bin	0.0003913152	947
bin	0.0003921696	957
bin	0.000393024	921
bin	0.0003938784	982
bin	0.0003947328	932
bin	0.0003955872	909
bin	0.0003964416	937
bin	0.000397296	928
bin	0.0003981504	951
bin	0.0003990048	896
bin	0.0003998592	919
bin	0.0004007136	922
bin	0.000401568	897
bin	0.0004024224	890
bin	0.0004032768	861
bin	0.0004041312	880
bin	0.0004049856	893
bin	0.00040584	876
bin	0.0004066944	870
bin	0.0004075488	851
bin	0.0004084032	812
bin	0.0004092576	837
bin	0.000410112	834
bin	0.0004109664	832
bin	0.0004118208	790
bin	0.0004126752	831
bin	0.0004135296	816
bin	0.000414384	888
bin	0.0004152384	888
bin	0.0004160928	854
bin	0.0004169472	849
bin	0.0004178016	833
bin	0.000418656	864
bin	0.0004195104	874
bin	0.0004203648	871
bin	0.0004212192	916
bin	0.0004220736	875
bin	0.000422928	906
bin	0.0004237824	847
bin	0.0004246368	904
bin	0.0004254912	822
bin	0.0004263456	812
bin	0.0004272	1368010
