version 2
run Bitcomplement-16-20120709-19:43:25-24885
attr alg 0
attr buf 8
attr configname Bitcomplement
attr datetime 20120709-19:43:25
attr delta 0.4
attr experiment Bitcomplement
attr ext true
attr inifile altro.ini
attr iterationvars "$buf=8, $ext=true, $ofedge=2, $delta=0.4, $alg=0"
attr iterationvars2 "$buf=8, $ext=true, $ofedge=2, $delta=0.4, $alg=0, $repetition=0"
attr measurement "$buf=8, $ext=true, $ofedge=2, $delta=0.4, $alg=0"
attr network Torus3d_bub
attr ofedge 2
attr processid 24885
attr repetition 0
attr replication #0
attr resultdir altro-results
attr runnumber 16
attr seedset 16

scalar . 	alg 	0
scalar . 	buf 	8
scalar . 	delta 	0.4
scalar . 	ofedge 	2
scalar Torus3d_bub.timer 	#endTime 	0.004305254993275
scalar Torus3d_bub.timer 	#totalHops 	75497472
scalar Torus3d_bub.timer 	#totalPacks 	6291456
scalar Torus3d_bub.timer 	#totalDerouted 	0
scalar Torus3d_bub.timer 	#totalOutFlanked 	0
scalar Torus3d_bub.timer 	#totalCQRed 	0
scalar Torus3d_bub.timer 	#LB 	0.000786432
scalar Torus3d_bub.timer 	#ratio 	0.18266792587859
statistic Torus3d_bub.timer 	"Hop Times"
field count 6291456
field mean 6.2846869723704e-05
field stddev 0.00015868630595214
field sum 395.39831560442
field sqrsum 0.18327683713731
field min 4.16444435e-07
field max 0.001393989111111
bin	-INF	0
bin	0	0
bin	7.12e-08	0
bin	1.424e-07	0
bin	2.136e-07	0
bin	2.848e-07	0
bin	3.56e-07	32
bin	4.272e-07	5244
bin	4.984e-07	16724
bin	5.696e-07	32278
bin	6.408e-07	45072
bin	7.12e-07	54616
bin	7.832e-07	67446
bin	8.544e-07	79870
bin	9.256e-07	90480
bin	9.968e-07	97494
bin	1.068e-06	100938
bin	1.1392e-06	104070
bin	1.2104e-06	100846
bin	1.2816e-06	96642
bin	1.3528e-06	90734
bin	1.424e-06	85312
bin	1.4952e-06	80038
bin	1.5664e-06	74954
bin	1.6376e-06	69484
bin	1.7088e-06	64368
bin	1.78e-06	61710
bin	1.8512e-06	61030
bin	1.9224e-06	64046
bin	1.9936e-06	65706
bin	2.0648e-06	68908
bin	2.136e-06	71074
bin	2.2072e-06	73990
bin	2.2784e-06	74646
bin	2.3496e-06	74262
bin	2.4208e-06	72674
bin	2.492e-06	72474
bin	2.5632e-06	69106
bin	2.6344e-06	66986
bin	2.7056e-06	65590
bin	2.7768e-06	63212
bin	2.848e-06	61128
bin	2.9192e-06	60413
bin	2.9904e-06	58645
bin	3.0616e-06	57572
bin	3.1328e-06	58416
bin	3.204e-06	58166
bin	3.2752e-06	58822
bin	3.3464e-06	58154
bin	3.4176e-06	57011
bin	3.4888e-06	56007
bin	3.56e-06	55254
bin	3.6312e-06	54554
bin	3.7024e-06	53805
bin	3.7736e-06	53185
bin	3.8448e-06	53692
bin	3.916e-06	53899
bin	3.9872e-06	53554
bin	4.0584e-06	53845
bin	4.1296e-06	54208
bin	4.2008e-06	52642
bin	4.272e-06	51754
bin	4.3432e-06	49992
bin	4.4144e-06	49158
bin	4.4856e-06	47606
bin	4.5568e-06	45864
bin	4.628e-06	44274
bin	4.6992e-06	42176
bin	4.7704e-06	40492
bin	4.8416e-06	38322
bin	4.9128e-06	36514
bin	4.984e-06	34462
bin	5.0552e-06	33082
bin	5.1264e-06	32498
bin	5.1976e-06	31092
bin	5.2688e-06	29102
bin	5.34e-06	27210
bin	5.4112e-06	26036
bin	5.4824e-06	24466
bin	5.5536e-06	23544
bin	5.6248e-06	22028
bin	5.696e-06	21090
bin	5.7672e-06	19990
bin	5.8384e-06	19174
bin	5.9096e-06	18540
bin	5.9808e-06	18272
bin	6.052e-06	17296
bin	6.1232e-06	17138
bin	6.1944e-06	16420
bin	6.2656e-06	15946
bin	6.3368e-06	15094
bin	6.408e-06	14122
bin	6.4792e-06	13044
bin	6.5504e-06	12498
bin	6.6216e-06	11748
bin	6.6928e-06	11056
bin	6.764e-06	10376
bin	6.8352e-06	9716
bin	6.9064e-06	9532
bin	6.9776e-06	9260
bin	7.0488e-06	8756
bin	7.12e-06	8548
bin	7.1912e-06	8546
bin	7.2624e-06	8098
bin	7.3336e-06	8022
bin	7.4048e-06	7840
bin	7.476e-06	6890
bin	7.5472e-06	6224
bin	7.6184e-06	5542
bin	7.6896e-06	5164
bin	7.7608e-06	4246
bin	7.832e-06	3812
bin	7.9032e-06	3164
bin	7.9744e-06	2616
bin	8.0456e-06	2384
bin	8.1168e-06	2234
bin	8.188e-06	2058
bin	8.2592e-06	2072
bin	8.3304e-06	2078
bin	8.4016e-06	2036
bin	8.4728e-06	2104
bin	8.544e-06	2170
bin	8.6152e-06	2310
bin	8.6864e-06	2292
bin	8.7576e-06	2348
bin	8.8288e-06	2222
bin	8.9e-06	2160
bin	8.9712e-06	2116
bin	9.0424e-06	2070
bin	9.1136e-06	2046
bin	9.1848e-06	1996
bin	9.256e-06	1904
bin	9.3272e-06	1854
bin	9.3984e-06	1726
bin	9.4696e-06	1690
bin	9.5408e-06	1488
bin	9.612e-06	1416
bin	9.6832e-06	1294
bin	9.7544e-06	1280
bin	9.8256e-06	1300
bin	9.8968e-06	1446
bin	9.968e-06	1454
bin	1.00392e-05	1460
bin	1.01104e-05	1440
bin	1.01816e-05	1428
bin	1.02528e-05	1426
bin	1.0324e-05	1396
bin	1.03952e-05	1420
bin	1.04664e-05	1494
bin	1.05376e-05	1528
bin	1.06088e-05	1554
bin	1.068e-05	1644
bin	1.07512e-05	1652
bin	1.08224e-05	1688
bin	1.08936e-05	1600
bin	1.09648e-05	1670
bin	1.1036e-05	1682
bin	1.11072e-05	1694
bin	1.11784e-05	1820
bin	1.12496e-05	1676
bin	1.13208e-05	1688
bin	1.1392e-05	1588
bin	1.14632e-05	1606
bin	1.15344e-05	1640
bin	1.16056e-05	1640
bin	1.16768e-05	1554
bin	1.1748e-05	1574
bin	1.18192e-05	1438
bin	1.18904e-05	1348
bin	1.19616e-05	1264
bin	1.20328e-05	1274
bin	1.2104e-05	1218
bin	1.21752e-05	1114
bin	1.22464e-05	1092
bin	1.23176e-05	1008
bin	1.23888e-05	1016
bin	1.246e-05	974
bin	1.25312e-05	1044
bin	1.26024e-05	1106
bin	1.26736e-05	1144
bin	1.27448e-05	1170
bin	1.2816e-05	1256
bin	1.28872e-05	1406
bin	1.29584e-05	1396
bin	1.30296e-05	1514
bin	1.31008e-05	1670
bin	1.3172e-05	1788
bin	1.32432e-05	1838
bin	1.33144e-05	1902
bin	1.33856e-05	2072
bin	1.34568e-05	1980
bin	1.3528e-05	2070
bin	1.35992e-05	2130
bin	1.36704e-05	2210
bin	1.37416e-05	2266
bin	1.38128e-05	2164
bin	1.3884e-05	2380
bin	1.39552e-05	2540
bin	1.40264e-05	2618
bin	1.40976e-05	2650
bin	1.41688e-05	2606
bin	1.424e-05	2602
bin	1.43112e-05	2352
bin	1.43824e-05	2120
bin	1.44536e-05	1930
bin	1.45248e-05	1704
bin	1.4596e-05	1506
bin	1.46672e-05	1294
bin	1.47384e-05	1042
bin	1.48096e-05	810
bin	1.48808e-05	744
bin	1.4952e-05	574
bin	1.50232e-05	568
bin	1.50944e-05	628
bin	1.51656e-05	638
bin	1.52368e-05	594
bin	1.5308e-05	596
bin	1.53792e-05	520
bin	1.54504e-05	518
bin	1.55216e-05	512
bin	1.55928e-05	582
bin	1.5664e-05	592
bin	1.57352e-05	572
bin	1.58064e-05	614
bin	1.58776e-05	718
bin	1.59488e-05	736
bin	1.602e-05	770
bin	1.60912e-05	770
bin	1.61624e-05	804
bin	1.62336e-05	708
bin	1.63048e-05	746
bin	1.6376e-05	676
bin	1.64472e-05	732
bin	1.65184e-05	660
bin	1.65896e-05	688
bin	1.66608e-05	696
bin	1.6732e-05	638
bin	1.68032e-05	664
bin	1.68744e-05	590
bin	1.69456e-05	622
bin	1.70168e-05	642
bin	1.7088e-05	656
bin	1.71592e-05	732
bin	1.72304e-05	660
bin	1.73016e-05	614
bin	1.73728e-05	526
bin	1.7444e-05	536
bin	1.75152e-05	544
bin	1.75864e-05	516
bin	1.76576e-05	484
bin	1.77288e-05	456
bin	1.78e-05	394
bin	1.78712e-05	406
bin	1.79424e-05	324
bin	1.80136e-05	376
bin	1.80848e-05	286
bin	1.8156e-05	294
bin	1.82272e-05	288
bin	1.82984e-05	284
bin	1.83696e-05	250
bin	1.84408e-05	280
bin	1.8512e-05	242
bin	1.85832e-05	216
bin	1.86544e-05	204
bin	1.87256e-05	182
bin	1.87968e-05	174
bin	1.8868e-05	148
bin	1.89392e-05	170
bin	1.90104e-05	166
bin	1.90816e-05	204
bin	1.91528e-05	236
bin	1.9224e-05	292
bin	1.92952e-05	368
bin	1.93664e-05	428
bin	1.94376e-05	534
bin	1.95088e-05	592
bin	1.958e-05	656
bin	1.96512e-05	718
bin	1.97224e-05	742
bin	1.97936e-05	932
bin	1.98648e-05	902
bin	1.9936e-05	1086
bin	2.00072e-05	1114
bin	2.00784e-05	1182
bin	2.01496e-05	1156
bin	2.02208e-05	1336
bin	2.0292e-05	1376
bin	2.03632e-05	1344
bin	2.04344e-05	1416
bin	2.05056e-05	1482
bin	2.05768e-05	1548
bin	2.0648e-05	1600
bin	2.07192e-05	1654
bin	2.07904e-05	1646
bin	2.08616e-05	1726
bin	2.09328e-05	1704
bin	2.1004e-05	1792
bin	2.10752e-05	1730
bin	2.11464e-05	1506
bin	2.12176e-05	1410
bin	2.12888e-05	1392
bin	2.136e-05	1278
bin	2.14312e-05	1036
bin	2.15024e-05	926
bin	2.15736e-05	810
bin	2.16448e-05	724
bin	2.1716e-05	562
bin	2.17872e-05	502
bin	2.18584e-05	556
bin	2.19296e-05	500
bin	2.20008e-05	526
bin	2.2072e-05	474
bin	2.21432e-05	482
bin	2.22144e-05	426
bin	2.22856e-05	406
bin	2.23568e-05	458
bin	2.2428e-05	388
bin	2.24992e-05	390
bin	2.25704e-05	344
bin	2.26416e-05	336
bin	2.27128e-05	308
bin	2.2784e-05	328
bin	2.28552e-05	316
bin	2.29264e-05	296
bin	2.29976e-05	292
bin	2.30688e-05	288
bin	2.314e-05	280
bin	2.32112e-05	256
bin	2.32824e-05	264
bin	2.33536e-05	236
bin	2.34248e-05	254
bin	2.3496e-05	208
bin	2.35672e-05	210
bin	2.36384e-05	220
bin	2.37096e-05	194
bin	2.37808e-05	160
bin	2.3852e-05	204
bin	2.39232e-05	138
bin	2.39944e-05	156
bin	2.40656e-05	162
bin	2.41368e-05	138
bin	2.4208e-05	144
bin	2.42792e-05	128
bin	2.43504e-05	150
bin	2.44216e-05	154
bin	2.44928e-05	170
bin	2.4564e-05	170
bin	2.46352e-05	200
bin	2.47064e-05	184
bin	2.47776e-05	182
bin	2.48488e-05	174
bin	2.492e-05	204
bin	2.49912e-05	162
bin	2.50624e-05	160
bin	2.51336e-05	162
bin	2.52048e-05	166
bin	2.5276e-05	166
bin	2.53472e-05	162
bin	2.54184e-05	174
bin	2.54896e-05	176
bin	2.55608e-05	176
bin	2.5632e-05	178
bin	2.57032e-05	156
bin	2.57744e-05	162
bin	2.58456e-05	176
bin	2.59168e-05	206
bin	2.5988e-05	202
bin	2.60592e-05	254
bin	2.61304e-05	254
bin	2.62016e-05	300
bin	2.62728e-05	366
bin	2.6344e-05	376
bin	2.64152e-05	420
bin	2.64864e-05	434
bin	2.65576e-05	546
bin	2.66288e-05	544
bin	2.67e-05	618
bin	2.67712e-05	736
bin	2.68424e-05	754
bin	2.69136e-05	820
bin	2.69848e-05	888
bin	2.7056e-05	936
bin	2.71272e-05	944
bin	2.71984e-05	1014
bin	2.72696e-05	1086
bin	2.73408e-05	1050
bin	2.7412e-05	1120
bin	2.74832e-05	1224
bin	2.75544e-05	1272
bin	2.76256e-05	1212
bin	2.76968e-05	1242
bin	2.7768e-05	1348
bin	2.78392e-05	1296
bin	2.79104e-05	1262
bin	2.79816e-05	1126
bin	2.80528e-05	1044
bin	2.8124e-05	968
bin	2.81952e-05	934
bin	2.82664e-05	790
bin	2.83376e-05	664
bin	2.84088e-05	686
bin	2.848e-05	586
bin	2.85512e-05	498
bin	2.86224e-05	474
bin	2.86936e-05	430
bin	2.87648e-05	438
bin	2.8836e-05	418
bin	2.89072e-05	440
bin	2.89784e-05	388
bin	2.90496e-05	308
bin	2.91208e-05	338
bin	2.9192e-05	286
bin	2.92632e-05	270
bin	2.93344e-05	282
bin	2.94056e-05	266
bin	2.94768e-05	212
bin	2.9548e-05	252
bin	2.96192e-05	178
bin	2.96904e-05	206
bin	2.97616e-05	166
bin	2.98328e-05	196
bin	2.9904e-05	176
bin	2.99752e-05	182
bin	3.00464e-05	192
bin	3.01176e-05	168
bin	3.01888e-05	200
bin	3.026e-05	158
bin	3.03312e-05	192
bin	3.04024e-05	142
bin	3.04736e-05	156
bin	3.05448e-05	124
bin	3.0616e-05	154
bin	3.06872e-05	154
bin	3.07584e-05	148
bin	3.08296e-05	162
bin	3.09008e-05	140
bin	3.0972e-05	160
bin	3.10432e-05	156
bin	3.11144e-05	162
bin	3.11856e-05	128
bin	3.12568e-05	168
bin	3.1328e-05	152
bin	3.13992e-05	168
bin	3.14704e-05	182
bin	3.15416e-05	174
bin	3.16128e-05	206
bin	3.1684e-05	172
bin	3.17552e-05	166
bin	3.18264e-05	178
bin	3.18976e-05	196
bin	3.19688e-05	178
bin	3.204e-05	166
bin	3.21112e-05	198
bin	3.21824e-05	172
bin	3.22536e-05	198
bin	3.23248e-05	196
bin	3.2396e-05	216
bin	3.24672e-05	210
bin	3.25384e-05	208
bin	3.26096e-05	232
bin	3.26808e-05	220
bin	3.2752e-05	222
bin	3.28232e-05	222
bin	3.28944e-05	220
bin	3.29656e-05	206
bin	3.30368e-05	246
bin	3.3108e-05	278
bin	3.31792e-05	302
bin	3.32504e-05	350
bin	3.33216e-05	398
bin	3.33928e-05	478
bin	3.3464e-05	432
bin	3.35352e-05	496
bin	3.36064e-05	544
bin	3.36776e-05	608
bin	3.37488e-05	650
bin	3.382e-05	728
bin	3.38912e-05	828
bin	3.39624e-05	872
bin	3.40336e-05	794
bin	3.41048e-05	834
bin	3.4176e-05	916
bin	3.42472e-05	922
bin	3.43184e-05	946
bin	3.43896e-05	1004
bin	3.44608e-05	1152
bin	3.4532e-05	1112
bin	3.46032e-05	1120
bin	3.46744e-05	1146
bin	3.47456e-05	1086
bin	3.48168e-05	932
bin	3.4888e-05	882
bin	3.49592e-05	892
bin	3.50304e-05	784
bin	3.51016e-05	722
bin	3.51728e-05	602
bin	3.5244e-05	538
bin	3.53152e-05	428
bin	3.53864e-05	420
bin	3.54576e-05	374
bin	3.55288e-05	362
bin	3.56e-05	1368822
statistic Torus3d_bub.timer 	"Life Times"
field count 6291456
field mean 0.00036918185146054
field stddev 0.00071199302252965
field sum 2322.6913744625
field sqrsum 4.0468483544422
field min 1.463666666e-06
field max 0.004183291333333
bin	-INF	0
bin	0	0
bin	8.544e-07	16
bin	1.7088e-06	104
bin	2.5632e-06	196
bin	3.4176e-06	1252
bin	4.272e-06	4636
bin	5.1264e-06	6974
bin	5.9808e-06	12748
bin	6.8352e-06	20144
bin	7.6896e-06	26814
bin	8.544e-06	33864
bin	9.3984e-06	40972
bin	1.02528e-05	49336
bin	1.11072e-05	54142
bin	1.19616e-05	56702
bin	1.2816e-05	60164
bin	1.36704e-05	61910
bin	1.45248e-05	64884
bin	1.53792e-05	65260
bin	1.62336e-05	65788
bin	1.7088e-05	66342
bin	1.79424e-05	63942
bin	1.87968e-05	61922
bin	1.96512e-05	59242
bin	2.05056e-05	57414
bin	2.136e-05	56506
bin	2.22144e-05	55870
bin	2.30688e-05	55290
bin	2.39232e-05	56212
bin	2.47776e-05	57040
bin	2.5632e-05	58170
bin	2.64864e-05	61484
bin	2.73408e-05	62012
bin	2.81952e-05	63764
bin	2.90496e-05	66956
bin	2.9904e-05	68082
bin	3.07584e-05	69610
bin	3.16128e-05	70668
bin	3.24672e-05	71520
bin	3.33216e-05	72892
bin	3.4176e-05	74520
bin	3.50304e-05	74612
bin	3.58848e-05	77486
bin	3.67392e-05	77210
bin	3.75936e-05	77568
bin	3.8448e-05	77852
bin	3.93024e-05	77894
bin	4.01568e-05	78824
bin	4.10112e-05	79798
bin	4.18656e-05	82042
bin	4.272e-05	81992
bin	4.35744e-05	82109
bin	4.44288e-05	81392
bin	4.52832e-05	82077
bin	4.61376e-05	79702
bin	4.6992e-05	80068
bin	4.78464e-05	77308
bin	4.87008e-05	74978
bin	4.95552e-05	74166
bin	5.04096e-05	72792
bin	5.1264e-05	70882
bin	5.21184e-05	67944
bin	5.29728e-05	66464
bin	5.38272e-05	65002
bin	5.46816e-05	62964
bin	5.5536e-05	62510
bin	5.63904e-05	60498
bin	5.72448e-05	58410
bin	5.80992e-05	55200
bin	5.89536e-05	52332
bin	5.9808e-05	50212
bin	6.06624e-05	47652
bin	6.15168e-05	44658
bin	6.23712e-05	42922
bin	6.32256e-05	39414
bin	6.408e-05	37412
bin	6.49344e-05	35558
bin	6.57888e-05	33654
bin	6.66432e-05	32220
bin	6.74976e-05	28790
bin	6.8352e-05	25240
bin	6.92064e-05	21686
bin	7.00608e-05	18500
bin	7.09152e-05	15194
bin	7.17696e-05	12716
bin	7.2624e-05	10342
bin	7.34784e-05	8628
bin	7.43328e-05	7434
bin	7.51872e-05	6284
bin	7.60416e-05	5230
bin	7.6896e-05	4776
bin	7.77504e-05	3984
bin	7.86048e-05	3436
bin	7.94592e-05	2778
bin	8.03136e-05	2352
bin	8.1168e-05	2054
bin	8.20224e-05	1826
bin	8.28768e-05	1572
bin	8.37312e-05	1398
bin	8.45856e-05	1280
bin	8.544e-05	1026
bin	8.62944e-05	840
bin	8.71488e-05	804
bin	8.80032e-05	678
bin	8.88576e-05	608
bin	8.9712e-05	448
bin	9.05664e-05	532
bin	9.14208e-05	438
bin	9.22752e-05	434
bin	9.31296e-05	394
bin	9.3984e-05	366
bin	9.48384e-05	404
bin	9.56928e-05	370
bin	9.65472e-05	450
bin	9.74016e-05	452
bin	9.8256e-05	506
bin	9.91104e-05	462
bin	9.99648e-05	494
bin	0.0001008192	524
bin	0.0001016736	492
bin	0.000102528	484
bin	0.0001033824	542
bin	0.0001042368	606
bin	0.0001050912	634
bin	0.0001059456	690
bin	0.0001068	748
bin	0.0001076544	846
bin	0.0001085088	1060
bin	0.0001093632	1256
bin	0.0001102176	1632
bin	0.000111072	1932
bin	0.0001119264	2326
bin	0.0001127808	2762
bin	0.0001136352	3106
bin	0.0001144896	3298
bin	0.000115344	3774
bin	0.0001161984	3874
bin	0.0001170528	4386
bin	0.0001179072	4692
bin	0.0001187616	4906
bin	0.000119616	5040
bin	0.0001204704	5338
bin	0.0001213248	5314
bin	0.0001221792	5470
bin	0.0001230336	5604
bin	0.000123888	5516
bin	0.0001247424	5718
bin	0.0001255968	5986
bin	0.0001264512	5912
bin	0.0001273056	6000
bin	0.00012816	5864
bin	0.0001290144	5342
bin	0.0001298688	4818
bin	0.0001307232	4268
bin	0.0001315776	3706
bin	0.000132432	3014
bin	0.0001332864	2596
bin	0.0001341408	2140
bin	0.0001349952	1966
bin	0.0001358496	1808
bin	0.000136704	1598
bin	0.0001375584	1332
bin	0.0001384128	1194
bin	0.0001392672	1066
bin	0.0001401216	874
bin	0.000140976	742
bin	0.0001418304	656
bin	0.0001426848	576
bin	0.0001435392	546
bin	0.0001443936	486
bin	0.000145248	462
bin	0.0001461024	362
bin	0.0001469568	380
bin	0.0001478112	358
bin	0.0001486656	272
bin	0.00014952	272
bin	0.0001503744	256
bin	0.0001512288	252
bin	0.0001520832	194
bin	0.0001529376	186
bin	0.000153792	182
bin	0.0001546464	188
bin	0.0001555008	144
bin	0.0001563552	168
bin	0.0001572096	170
bin	0.000158064	162
bin	0.0001589184	158
bin	0.0001597728	174
bin	0.0001606272	196
bin	0.0001614816	178
bin	0.000162336	192
bin	0.0001631904	192
bin	0.0001640448	162
bin	0.0001648992	180
bin	0.0001657536	196
bin	0.000166608	206
bin	0.0001674624	228
bin	0.0001683168	212
bin	0.0001691712	220
bin	0.0001700256	260
bin	0.00017088	332
bin	0.0001717344	470
bin	0.0001725888	556
bin	0.0001734432	726
bin	0.0001742976	910
bin	0.000175152	1162
bin	0.0001760064	1340
bin	0.0001768608	1404
bin	0.0001777152	1658
bin	0.0001785696	1670
bin	0.000179424	1874
bin	0.0001802784	2058
bin	0.0001811328	2164
bin	0.0001819872	2320
bin	0.0001828416	2448
bin	0.000183696	2500
bin	0.0001845504	2568
bin	0.0001854048	2742
bin	0.0001862592	2804
bin	0.0001871136	2944
bin	0.000187968	2910
bin	0.0001888224	3102
bin	0.0001896768	2940
bin	0.0001905312	2530
bin	0.0001913856	2414
bin	0.00019224	2152
bin	0.0001930944	1820
bin	0.0001939488	1544
bin	0.0001948032	1274
bin	0.0001956576	1050
bin	0.000196512	1026
bin	0.0001973664	922
bin	0.0001982208	808
bin	0.0001990752	748
bin	0.0001999296	694
bin	0.000200784	684
bin	0.0002016384	560
bin	0.0002024928	544
bin	0.0002033472	424
bin	0.0002042016	372
bin	0.000205056	336
bin	0.0002059104	304
bin	0.0002067648	266
bin	0.0002076192	210
bin	0.0002084736	192
bin	0.000209328	192
bin	0.0002101824	190
bin	0.0002110368	194
bin	0.0002118912	202
bin	0.0002127456	186
bin	0.0002136	184
bin	0.0002144544	192
bin	0.0002153088	166
bin	0.0002161632	182
bin	0.0002170176	188
bin	0.000217872	178
bin	0.0002187264	154
bin	0.0002195808	184
bin	0.0002204352	196
bin	0.0002212896	206
bin	0.000222144	202
bin	0.0002229984	208
bin	0.0002238528	238
bin	0.0002247072	214
bin	0.0002255616	192
bin	0.000226416	230
bin	0.0002272704	200
bin	0.0002281248	214
bin	0.0002289792	242
bin	0.0002298336	208
bin	0.000230688	242
bin	0.0002315424	196
bin	0.0002323968	222
bin	0.0002332512	270
bin	0.0002341056	348
bin	0.00023496	366
bin	0.0002358144	446
bin	0.0002366688	562
bin	0.0002375232	626
bin	0.0002383776	678
bin	0.000239232	784
bin	0.0002400864	904
bin	0.0002409408	1062
bin	0.0002417952	1176
bin	0.0002426496	1278
bin	0.000243504	1342
bin	0.0002443584	1426
bin	0.0002452128	1528
bin	0.0002460672	1566
bin	0.0002469216	1638
bin	0.000247776	1770
bin	0.0002486304	1784
bin	0.0002494848	1800
bin	0.0002503392	1872
bin	0.0002511936	1778
bin	0.000252048	1510
bin	0.0002529024	1394
bin	0.0002537568	1306
bin	0.0002546112	1100
bin	0.0002554656	918
bin	0.00025632	812
bin	0.0002571744	704
bin	0.0002580288	634
bin	0.0002588832	636
bin	0.0002597376	624
bin	0.000260592	556
bin	0.0002614464	478
bin	0.0002623008	408
bin	0.0002631552	358
bin	0.0002640096	346
bin	0.000264864	322
bin	0.0002657184	306
bin	0.0002665728	246
bin	0.0002674272	238
bin	0.0002682816	266
bin	0.000269136	252
bin	0.0002699904	234
bin	0.0002708448	242
bin	0.0002716992	266
bin	0.0002725536	236
bin	0.000273408	224
bin	0.0002742624	208
bin	0.0002751168	210
bin	0.0002759712	216
bin	0.0002768256	216
bin	0.00027768	216
bin	0.0002785344	220
bin	0.0002793888	214
bin	0.0002802432	214
bin	0.0002810976	220
bin	0.000281952	218
bin	0.0002828064	228
bin	0.0002836608	266
bin	0.0002845152	274
bin	0.0002853696	242
bin	0.000286224	246
bin	0.0002870784	256
bin	0.0002879328	242
bin	0.0002887872	242
bin	0.0002896416	242
bin	0.000290496	240
bin	0.0002913504	268
bin	0.0002922048	272
bin	0.0002930592	262
bin	0.0002939136	280
bin	0.000294768	252
bin	0.0002956224	278
bin	0.0002964768	266
bin	0.0002973312	320
bin	0.0002981856	398
bin	0.00029904	446
bin	0.0002998944	548
bin	0.0003007488	612
bin	0.0003016032	700
bin	0.0003024576	792
bin	0.000303312	904
bin	0.0003041664	966
bin	0.0003050208	1146
bin	0.0003058752	1106
bin	0.0003067296	1204
bin	0.000307584	1276
bin	0.0003084384	1322
bin	0.0003092928	1380
bin	0.0003101472	1590
bin	0.0003110016	1522
bin	0.000311856	1602
bin	0.0003127104	1494
bin	0.0003135648	1264
bin	0.0003144192	1234
bin	0.0003152736	1058
bin	0.000316128	938
bin	0.0003169824	802
bin	0.0003178368	668
bin	0.0003186912	636
bin	0.0003195456	598
bin	0.0003204	536
bin	0.0003212544	504
bin	0.0003221088	516
bin	0.0003229632	512
bin	0.0003238176	474
bin	0.000324672	430
bin	0.0003255264	388
bin	0.0003263808	348
bin	0.0003272352	336
bin	0.0003280896	312
bin	0.000328944	308
bin	0.0003297984	320
bin	0.0003306528	268
bin	0.0003315072	264
bin	0.0003323616	284
bin	0.000333216	284
bin	0.0003340704	284
bin	0.0003349248	302
bin	0.0003357792	308
bin	0.0003366336	272
bin	0.000337488	280
bin	0.0003383424	294
bin	0.0003391968	352
bin	0.0003400512	332
bin	0.0003409056	310
bin	0.00034176	314
bin	0.0003426144	324
bin	0.0003434688	298
bin	0.0003443232	266
bin	0.0003451776	290
bin	0.000346032	254
bin	0.0003468864	302
bin	0.0003477408	262
bin	0.0003485952	300
bin	0.0003494496	300
bin	0.000350304	260
bin	0.0003511584	234
bin	0.0003520128	238
bin	0.0003528672	246
bin	0.0003537216	242
bin	0.000354576	256
bin	0.0003554304	250
bin	0.0003562848	276
bin	0.0003571392	288
bin	0.0003579936	332
bin	0.000358848	376
bin	0.0003597024	368
bin	0.0003605568	382
bin	0.0003614112	516
bin	0.0003622656	570
bin	0.00036312	748
bin	0.0003639744	814
bin	0.0003648288	906
bin	0.0003656832	1040
bin	0.0003665376	1102
bin	0.000367392	1286
bin	0.0003682464	1348
bin	0.0003691008	1386
bin	0.0003699552	1468
bin	0.0003708096	1632
bin	0.000371664	1678
bin	0.0003725184	1702
bin	0.0003733728	1644
bin	0.0003742272	1532
bin	0.0003750816	1344
bin	0.000375936	1262
bin	0.0003767904	1172
bin	0.0003776448	944
bin	0.0003784992	768
bin	0.0003793536	662
bin	0.000380208	610
bin	0.0003810624	610
bin	0.0003819168	538
bin	0.0003827712	538
bin	0.0003836256	542
bin	0.00038448	516
bin	0.0003853344	472
bin	0.0003861888	448
bin	0.0003870432	462
bin	0.0003878976	458
bin	0.000388752	448
bin	0.0003896064	426
bin	0.0003904608	408
bin	0.0003913152	384
bin	0.0003921696	366
bin	0.000393024	350
bin	0.0003938784	346
bin	0.0003947328	328
bin	0.0003955872	312
bin	0.0003964416	324
bin	0.000397296	310
bin	0.0003981504	318
bin	0.0003990048	276
bin	0.0003998592	298
bin	0.0004007136	282
bin	0.000401568	270
bin	0.0004024224	272
bin	0.0004032768	272
bin	0.0004041312	282
bin	0.0004049856	278
bin	0.00040584	302
bin	0.0004066944	268
bin	0.0004075488	282
bin	0.0004084032	272
bin	0.0004092576	274
bin	0.000410112	272
bin	0.0004109664	270
bin	0.0004118208	272
bin	0.0004126752	276
bin	0.0004135296	270
bin	0.000414384	258
bin	0.0004152384	274
bin	0.0004160928	288
bin	0.0004169472	306
bin	0.0004178016	280
bin	0.000418656	324
bin	0.0004195104	392
bin	0.0004203648	416
bin	0.0004212192	486
bin	0.0004220736	532
bin	0.000422928	600
bin	0.0004237824	686
bin	0.0004246368	800
bin	0.0004254912	870
bin	0.0004263456	1004
bin	0.0004272	1307536
