version 2
run Bitcomplement-41-20120709-21:42:54-24931
attr alg 1
attr buf 8
attr configname Bitcomplement
attr datetime 20120709-21:42:54
attr delta 0.4
attr experiment Bitcomplement
attr ext false
attr inifile altro.ini
attr iterationvars "$buf=8, $ext=false, $ofedge=2, $delta=0.4, $alg=1"
attr iterationvars2 "$buf=8, $ext=false, $ofedge=2, $delta=0.4, $alg=1, $repetition=0"
attr measurement "$buf=8, $ext=false, $ofedge=2, $delta=0.4, $alg=1"
attr network Torus3d_bub
attr ofedge 2
attr processid 24931
attr repetition 0
attr replication #0
attr resultdir altro-results
attr runnumber 41
attr seedset 41

scalar . 	alg 	1
scalar . 	buf 	8
scalar . 	delta 	0.4
scalar . 	ofedge 	2
scalar Torus3d_bub.timer 	#endTime 	0.015868793642262
scalar Torus3d_bub.timer 	#totalHops 	110184149
scalar Torus3d_bub.timer 	#totalPacks 	6291456
scalar Torus3d_bub.timer 	#totalDerouted 	3580920
scalar Torus3d_bub.timer 	#totalOutFlanked 	3580920
scalar Torus3d_bub.timer 	#totalCQRed 	0
scalar Torus3d_bub.timer 	#LB 	0.000786432
scalar Torus3d_bub.timer 	#ratio 	0.049558398560654
statistic Torus3d_bub.timer 	"Hop Times"
field count 6291456
field mean 0.00043821298561365
field stddev 0.00035602210165389
field sum 2756.9977176169
field sqrsum 2.0056050498316
field min 4.16777777e-07
field max 0.004204076
bin	-INF	0
bin	0	0
bin	7.12e-08	0
bin	1.424e-07	0
bin	2.136e-07	0
bin	2.848e-07	0
bin	3.56e-07	16
bin	4.272e-07	181
bin	4.984e-07	2207
bin	5.696e-07	2821
bin	6.408e-07	3152
bin	7.12e-07	3573
bin	7.832e-07	4038
bin	8.544e-07	4365
bin	9.256e-07	4847
bin	9.968e-07	4946
bin	1.068e-06	5353
bin	1.1392e-06	5723
bin	1.2104e-06	5771
bin	1.2816e-06	5940
bin	1.3528e-06	6123
bin	1.424e-06	5978
bin	1.4952e-06	5978
bin	1.5664e-06	6097
bin	1.6376e-06	5726
bin	1.7088e-06	5823
bin	1.78e-06	5665
bin	1.8512e-06	5412
bin	1.9224e-06	5437
bin	1.9936e-06	5411
bin	2.0648e-06	5392
bin	2.136e-06	5519
bin	2.2072e-06	5467
bin	2.2784e-06	5458
bin	2.3496e-06	5480
bin	2.4208e-06	5443
bin	2.492e-06	5496
bin	2.5632e-06	5526
bin	2.6344e-06	5528
bin	2.7056e-06	5469
bin	2.7768e-06	5266
bin	2.848e-06	5306
bin	2.9192e-06	5171
bin	2.9904e-06	4887
bin	3.0616e-06	4897
bin	3.1328e-06	4821
bin	3.204e-06	4667
bin	3.2752e-06	4504
bin	3.3464e-06	4419
bin	3.4176e-06	4388
bin	3.4888e-06	4271
bin	3.56e-06	4072
bin	3.6312e-06	4029
bin	3.7024e-06	3957
bin	3.7736e-06	3803
bin	3.8448e-06	3640
bin	3.916e-06	3543
bin	3.9872e-06	3466
bin	4.0584e-06	3299
bin	4.1296e-06	3195
bin	4.2008e-06	3152
bin	4.272e-06	2925
bin	4.3432e-06	2772
bin	4.4144e-06	2689
bin	4.4856e-06	2676
bin	4.5568e-06	2585
bin	4.628e-06	2483
bin	4.6992e-06	2398
bin	4.7704e-06	2287
bin	4.8416e-06	2165
bin	4.9128e-06	2075
bin	4.984e-06	2018
bin	5.0552e-06	2017
bin	5.1264e-06	1953
bin	5.1976e-06	1921
bin	5.2688e-06	1888
bin	5.34e-06	1772
bin	5.4112e-06	1755
bin	5.4824e-06	1796
bin	5.5536e-06	1696
bin	5.6248e-06	1694
bin	5.696e-06	1675
bin	5.7672e-06	1580
bin	5.8384e-06	1550
bin	5.9096e-06	1549
bin	5.9808e-06	1585
bin	6.052e-06	1531
bin	6.1232e-06	1530
bin	6.1944e-06	1466
bin	6.2656e-06	1578
bin	6.3368e-06	1482
bin	6.408e-06	1452
bin	6.4792e-06	1432
bin	6.5504e-06	1437
bin	6.6216e-06	1429
bin	6.6928e-06	1419
bin	6.764e-06	1300
bin	6.8352e-06	1354
bin	6.9064e-06	1357
bin	6.9776e-06	1372
bin	7.0488e-06	1312
bin	7.12e-06	1326
bin	7.1912e-06	1361
bin	7.2624e-06	1407
bin	7.3336e-06	1379
bin	7.4048e-06	1361
bin	7.476e-06	1335
bin	7.5472e-06	1305
bin	7.6184e-06	1330
bin	7.6896e-06	1369
bin	7.7608e-06	1281
bin	7.832e-06	1176
bin	7.9032e-06	1178
bin	7.9744e-06	1132
bin	8.0456e-06	1094
bin	8.1168e-06	1089
bin	8.188e-06	1038
bin	8.2592e-06	998
bin	8.3304e-06	1042
bin	8.4016e-06	996
bin	8.4728e-06	999
bin	8.544e-06	1061
bin	8.6152e-06	1025
bin	8.6864e-06	1052
bin	8.7576e-06	1009
bin	8.8288e-06	1004
bin	8.9e-06	1062
bin	8.9712e-06	1128
bin	9.0424e-06	1083
bin	9.1136e-06	1043
bin	9.1848e-06	1031
bin	9.256e-06	1076
bin	9.3272e-06	1056
bin	9.3984e-06	1025
bin	9.4696e-06	1041
bin	9.5408e-06	1023
bin	9.612e-06	1026
bin	9.6832e-06	1054
bin	9.7544e-06	1072
bin	9.8256e-06	1121
bin	9.8968e-06	1031
bin	9.968e-06	956
bin	1.00392e-05	995
bin	1.01104e-05	1041
bin	1.01816e-05	1008
bin	1.02528e-05	1030
bin	1.0324e-05	1010
bin	1.03952e-05	1036
bin	1.04664e-05	1013
bin	1.05376e-05	955
bin	1.06088e-05	1007
bin	1.068e-05	1008
bin	1.07512e-05	954
bin	1.08224e-05	987
bin	1.08936e-05	974
bin	1.09648e-05	918
bin	1.1036e-05	893
bin	1.11072e-05	931
bin	1.11784e-05	880
bin	1.12496e-05	895
bin	1.13208e-05	934
bin	1.1392e-05	980
bin	1.14632e-05	980
bin	1.15344e-05	935
bin	1.16056e-05	941
bin	1.16768e-05	960
bin	1.1748e-05	873
bin	1.18192e-05	913
bin	1.18904e-05	889
bin	1.19616e-05	892
bin	1.20328e-05	864
bin	1.2104e-05	871
bin	1.21752e-05	859
bin	1.22464e-05	858
bin	1.23176e-05	893
bin	1.23888e-05	880
bin	1.246e-05	832
bin	1.25312e-05	842
bin	1.26024e-05	875
bin	1.26736e-05	909
bin	1.27448e-05	893
bin	1.2816e-05	903
bin	1.28872e-05	864
bin	1.29584e-05	903
bin	1.30296e-05	878
bin	1.31008e-05	921
bin	1.3172e-05	910
bin	1.32432e-05	941
bin	1.33144e-05	882
bin	1.33856e-05	919
bin	1.34568e-05	914
bin	1.3528e-05	864
bin	1.35992e-05	864
bin	1.36704e-05	768
bin	1.37416e-05	744
bin	1.38128e-05	790
bin	1.3884e-05	757
bin	1.39552e-05	812
bin	1.40264e-05	774
bin	1.40976e-05	741
bin	1.41688e-05	798
bin	1.424e-05	824
bin	1.43112e-05	757
bin	1.43824e-05	799
bin	1.44536e-05	760
bin	1.45248e-05	738
bin	1.4596e-05	713
bin	1.46672e-05	768
bin	1.47384e-05	746
bin	1.48096e-05	658
bin	1.48808e-05	664
bin	1.4952e-05	657
bin	1.50232e-05	760
bin	1.50944e-05	709
bin	1.51656e-05	735
bin	1.52368e-05	704
bin	1.5308e-05	713
bin	1.53792e-05	724
bin	1.54504e-05	748
bin	1.55216e-05	764
bin	1.55928e-05	815
bin	1.5664e-05	786
bin	1.57352e-05	729
bin	1.58064e-05	716
bin	1.58776e-05	767
bin	1.59488e-05	790
bin	1.602e-05	807
bin	1.60912e-05	742
bin	1.61624e-05	755
bin	1.62336e-05	773
bin	1.63048e-05	733
bin	1.6376e-05	715
bin	1.64472e-05	669
bin	1.65184e-05	743
bin	1.65896e-05	696
bin	1.66608e-05	698
bin	1.6732e-05	703
bin	1.68032e-05	651
bin	1.68744e-05	723
bin	1.69456e-05	673
bin	1.70168e-05	666
bin	1.7088e-05	642
bin	1.71592e-05	633
bin	1.72304e-05	630
bin	1.73016e-05	640
bin	1.73728e-05	683
bin	1.7444e-05	665
bin	1.75152e-05	678
bin	1.75864e-05	640
bin	1.76576e-05	648
bin	1.77288e-05	654
bin	1.78e-05	620
bin	1.78712e-05	679
bin	1.79424e-05	670
bin	1.80136e-05	698
bin	1.80848e-05	679
bin	1.8156e-05	661
bin	1.82272e-05	644
bin	1.82984e-05	634
bin	1.83696e-05	650
bin	1.84408e-05	702
bin	1.8512e-05	660
bin	1.85832e-05	703
bin	1.86544e-05	677
bin	1.87256e-05	664
bin	1.87968e-05	622
bin	1.8868e-05	654
bin	1.89392e-05	705
bin	1.90104e-05	652
bin	1.90816e-05	636
bin	1.91528e-05	608
bin	1.9224e-05	618
bin	1.92952e-05	650
bin	1.93664e-05	671
bin	1.94376e-05	622
bin	1.95088e-05	615
bin	1.958e-05	604
bin	1.96512e-05	603
bin	1.97224e-05	602
bin	1.97936e-05	620
bin	1.98648e-05	601
bin	1.9936e-05	597
bin	2.00072e-05	577
bin	2.00784e-05	572
bin	2.01496e-05	584
bin	2.02208e-05	612
bin	2.0292e-05	602
bin	2.03632e-05	644
bin	2.04344e-05	637
bin	2.05056e-05	634
bin	2.05768e-05	646
bin	2.0648e-05	674
bin	2.07192e-05	650
bin	2.07904e-05	686
bin	2.08616e-05	649
bin	2.09328e-05	613
bin	2.1004e-05	570
bin	2.10752e-05	553
bin	2.11464e-05	555
bin	2.12176e-05	596
bin	2.12888e-05	683
bin	2.136e-05	615
bin	2.14312e-05	604
bin	2.15024e-05	575
bin	2.15736e-05	554
bin	2.16448e-05	564
bin	2.1716e-05	541
bin	2.17872e-05	534
bin	2.18584e-05	544
bin	2.19296e-05	589
bin	2.20008e-05	583
bin	2.2072e-05	534
bin	2.21432e-05	523
bin	2.22144e-05	553
bin	2.22856e-05	564
bin	2.23568e-05	584
bin	2.2428e-05	598
bin	2.24992e-05	615
bin	2.25704e-05	622
bin	2.26416e-05	583
bin	2.27128e-05	585
bin	2.2784e-05	597
bin	2.28552e-05	583
bin	2.29264e-05	613
bin	2.29976e-05	601
bin	2.30688e-05	602
bin	2.314e-05	624
bin	2.32112e-05	592
bin	2.32824e-05	578
bin	2.33536e-05	548
bin	2.34248e-05	561
bin	2.3496e-05	583
bin	2.35672e-05	555
bin	2.36384e-05	520
bin	2.37096e-05	546
bin	2.37808e-05	548
bin	2.3852e-05	557
bin	2.39232e-05	540
bin	2.39944e-05	531
bin	2.40656e-05	536
bin	2.41368e-05	537
bin	2.4208e-05	513
bin	2.42792e-05	528
bin	2.43504e-05	543
bin	2.44216e-05	534
bin	2.44928e-05	526
bin	2.4564e-05	524
bin	2.46352e-05	536
bin	2.47064e-05	472
bin	2.47776e-05	506
bin	2.48488e-05	491
bin	2.492e-05	498
bin	2.49912e-05	482
bin	2.50624e-05	511
bin	2.51336e-05	520
bin	2.52048e-05	529
bin	2.5276e-05	509
bin	2.53472e-05	554
bin	2.54184e-05	541
bin	2.54896e-05	577
bin	2.55608e-05	540
bin	2.5632e-05	541
bin	2.57032e-05	547
bin	2.57744e-05	565
bin	2.58456e-05	576
bin	2.59168e-05	566
bin	2.5988e-05	547
bin	2.60592e-05	494
bin	2.61304e-05	538
bin	2.62016e-05	533
bin	2.62728e-05	528
bin	2.6344e-05	502
bin	2.64152e-05	480
bin	2.64864e-05	437
bin	2.65576e-05	469
bin	2.66288e-05	467
bin	2.67e-05	484
bin	2.67712e-05	464
bin	2.68424e-05	516
bin	2.69136e-05	472
bin	2.69848e-05	471
bin	2.7056e-05	470
bin	2.71272e-05	497
bin	2.71984e-05	504
bin	2.72696e-05	482
bin	2.73408e-05	513
bin	2.7412e-05	473
bin	2.74832e-05	503
bin	2.75544e-05	478
bin	2.76256e-05	502
bin	2.76968e-05	572
bin	2.7768e-05	551
bin	2.78392e-05	556
bin	2.79104e-05	550
bin	2.79816e-05	545
bin	2.80528e-05	590
bin	2.8124e-05	545
bin	2.81952e-05	553
bin	2.82664e-05	551
bin	2.83376e-05	559
bin	2.84088e-05	503
bin	2.848e-05	494
bin	2.85512e-05	485
bin	2.86224e-05	504
bin	2.86936e-05	488
bin	2.87648e-05	510
bin	2.8836e-05	456
bin	2.89072e-05	451
bin	2.89784e-05	452
bin	2.90496e-05	454
bin	2.91208e-05	472
bin	2.9192e-05	457
bin	2.92632e-05	486
bin	2.93344e-05	485
bin	2.94056e-05	507
bin	2.94768e-05	480
bin	2.9548e-05	454
bin	2.96192e-05	434
bin	2.96904e-05	447
bin	2.97616e-05	481
bin	2.98328e-05	493
bin	2.9904e-05	528
bin	2.99752e-05	524
bin	3.00464e-05	534
bin	3.01176e-05	513
bin	3.01888e-05	494
bin	3.026e-05	516
bin	3.03312e-05	519
bin	3.04024e-05	503
bin	3.04736e-05	493
bin	3.05448e-05	504
bin	3.0616e-05	492
bin	3.06872e-05	489
bin	3.07584e-05	495
bin	3.08296e-05	483
bin	3.09008e-05	481
bin	3.0972e-05	510
bin	3.10432e-05	495
bin	3.11144e-05	476
bin	3.11856e-05	465
bin	3.12568e-05	481
bin	3.1328e-05	456
bin	3.13992e-05	470
bin	3.14704e-05	457
bin	3.15416e-05	416
bin	3.16128e-05	427
bin	3.1684e-05	439
bin	3.17552e-05	432
bin	3.18264e-05	457
bin	3.18976e-05	473
bin	3.19688e-05	467
bin	3.204e-05	495
bin	3.21112e-05	456
bin	3.21824e-05	461
bin	3.22536e-05	486
bin	3.23248e-05	476
bin	3.2396e-05	486
bin	3.24672e-05	457
bin	3.25384e-05	482
bin	3.26096e-05	413
bin	3.26808e-05	411
bin	3.2752e-05	445
bin	3.28232e-05	451
bin	3.28944e-05	470
bin	3.29656e-05	463
bin	3.30368e-05	462
bin	3.3108e-05	480
bin	3.31792e-05	478
bin	3.32504e-05	513
bin	3.33216e-05	520
bin	3.33928e-05	484
bin	3.3464e-05	511
bin	3.35352e-05	458
bin	3.36064e-05	463
bin	3.36776e-05	454
bin	3.37488e-05	398
bin	3.382e-05	401
bin	3.38912e-05	375
bin	3.39624e-05	371
bin	3.40336e-05	398
bin	3.41048e-05	377
bin	3.4176e-05	345
bin	3.42472e-05	348
bin	3.43184e-05	384
bin	3.43896e-05	373
bin	3.44608e-05	393
bin	3.4532e-05	381
bin	3.46032e-05	376
bin	3.46744e-05	380
bin	3.47456e-05	381
bin	3.48168e-05	403
bin	3.4888e-05	433
bin	3.49592e-05	443
bin	3.50304e-05	457
bin	3.51016e-05	475
bin	3.51728e-05	395
bin	3.5244e-05	470
bin	3.53152e-05	480
bin	3.53864e-05	435
bin	3.54576e-05	441
bin	3.55288e-05	478
bin	3.56e-05	5697506
statistic Torus3d_bub.timer 	"Life Times"
field count 6291456
field mean 0.0066247388811366
field stddev 0.0037015635720613
field sum 41679.25318216
field sqrsum 362.31699828383
field min 1.250333333e-06
field max 0.015619082642266
bin	-INF	0
bin	0	0
bin	8.544e-07	66
bin	1.7088e-06	131
bin	2.5632e-06	475
bin	3.4176e-06	993
bin	4.272e-06	1796
bin	5.1264e-06	2229
bin	5.9808e-06	2488
bin	6.8352e-06	2540
bin	7.6896e-06	2751
bin	8.544e-06	2911
bin	9.3984e-06	3099
bin	1.02528e-05	3452
bin	1.11072e-05	3578
bin	1.19616e-05	3813
bin	1.2816e-05	3825
bin	1.36704e-05	3817
bin	1.45248e-05	3915
bin	1.53792e-05	3874
bin	1.62336e-05	3729
bin	1.7088e-05	3694
bin	1.79424e-05	3516
bin	1.87968e-05	3513
bin	1.96512e-05	3529
bin	2.05056e-05	3444
bin	2.136e-05	3525
bin	2.22144e-05	3523
bin	2.30688e-05	3508
bin	2.39232e-05	3558
bin	2.47776e-05	3591
bin	2.5632e-05	3566
bin	2.64864e-05	3571
bin	2.73408e-05	3690
bin	2.81952e-05	3506
bin	2.90496e-05	3531
bin	2.9904e-05	3414
bin	3.07584e-05	3418
bin	3.16128e-05	3490
bin	3.24672e-05	3497
bin	3.33216e-05	3620
bin	3.4176e-05	3628
bin	3.50304e-05	3583
bin	3.58848e-05	3563
bin	3.67392e-05	3492
bin	3.75936e-05	3607
bin	3.8448e-05	3675
bin	3.93024e-05	3501
bin	4.01568e-05	3618
bin	4.10112e-05	3698
bin	4.18656e-05	3560
bin	4.272e-05	3632
bin	4.35744e-05	3572
bin	4.44288e-05	3624
bin	4.52832e-05	3593
bin	4.61376e-05	3591
bin	4.6992e-05	3591
bin	4.78464e-05	3608
bin	4.87008e-05	3558
bin	4.95552e-05	3537
bin	5.04096e-05	3475
bin	5.1264e-05	3500
bin	5.21184e-05	3613
bin	5.29728e-05	3508
bin	5.38272e-05	3580
bin	5.46816e-05	3570
bin	5.5536e-05	3460
bin	5.63904e-05	3362
bin	5.72448e-05	3401
bin	5.80992e-05	3386
bin	5.89536e-05	3305
bin	5.9808e-05	3450
bin	6.06624e-05	3357
bin	6.15168e-05	3421
bin	6.23712e-05	3260
bin	6.32256e-05	3044
bin	6.408e-05	2949
bin	6.49344e-05	2741
bin	6.57888e-05	2716
bin	6.66432e-05	2569
bin	6.74976e-05	2427
bin	6.8352e-05	2278
bin	6.92064e-05	2131
bin	7.00608e-05	2012
bin	7.09152e-05	1912
bin	7.17696e-05	1789
bin	7.2624e-05	1610
bin	7.34784e-05	1500
bin	7.43328e-05	1454
bin	7.51872e-05	1441
bin	7.60416e-05	1322
bin	7.6896e-05	1261
bin	7.77504e-05	1267
bin	7.86048e-05	1213
bin	7.94592e-05	1173
bin	8.03136e-05	1154
bin	8.1168e-05	1139
bin	8.20224e-05	1114
bin	8.28768e-05	1042
bin	8.37312e-05	1069
bin	8.45856e-05	1108
bin	8.544e-05	1049
bin	8.62944e-05	1078
bin	8.71488e-05	1099
bin	8.80032e-05	1100
bin	8.88576e-05	1057
bin	8.9712e-05	1041
bin	9.05664e-05	1089
bin	9.14208e-05	1115
bin	9.22752e-05	1069
bin	9.31296e-05	1042
bin	9.3984e-05	1045
bin	9.48384e-05	1033
bin	9.56928e-05	1039
bin	9.65472e-05	1009
bin	9.74016e-05	1023
bin	9.8256e-05	973
bin	9.91104e-05	964
bin	9.99648e-05	953
bin	0.0001008192	973
bin	0.0001016736	938
bin	0.000102528	868
bin	0.0001033824	936
bin	0.0001042368	918
bin	0.0001050912	914
bin	0.0001059456	914
bin	0.0001068	911
bin	0.0001076544	888
bin	0.0001085088	922
bin	0.0001093632	975
bin	0.0001102176	884
bin	0.000111072	924
bin	0.0001119264	868
bin	0.0001127808	938
bin	0.0001136352	932
bin	0.0001144896	944
bin	0.000115344	969
bin	0.0001161984	953
bin	0.0001170528	978
bin	0.0001179072	957
bin	0.0001187616	920
bin	0.000119616	919
bin	0.0001204704	922
bin	0.0001213248	896
bin	0.0001221792	903
bin	0.0001230336	874
bin	0.000123888	900
bin	0.0001247424	902
bin	0.0001255968	887
bin	0.0001264512	849
bin	0.0001273056	832
bin	0.00012816	824
bin	0.0001290144	789
bin	0.0001298688	801
bin	0.0001307232	770
bin	0.0001315776	818
bin	0.000132432	817
bin	0.0001332864	770
bin	0.0001341408	781
bin	0.0001349952	798
bin	0.0001358496	815
bin	0.000136704	816
bin	0.0001375584	793
bin	0.0001384128	834
bin	0.0001392672	821
bin	0.0001401216	805
bin	0.000140976	760
bin	0.0001418304	784
bin	0.0001426848	732
bin	0.0001435392	777
bin	0.0001443936	745
bin	0.000145248	765
bin	0.0001461024	785
bin	0.0001469568	806
bin	0.0001478112	799
bin	0.0001486656	751
bin	0.00014952	749
bin	0.0001503744	703
bin	0.0001512288	729
bin	0.0001520832	746
bin	0.0001529376	744
bin	0.000153792	711
bin	0.0001546464	724
bin	0.0001555008	714
bin	0.0001563552	728
bin	0.0001572096	695
bin	0.000158064	698
bin	0.0001589184	667
bin	0.0001597728	660
bin	0.0001606272	684
bin	0.0001614816	670
bin	0.000162336	627
bin	0.0001631904	703
bin	0.0001640448	637
bin	0.0001648992	682
bin	0.0001657536	634
bin	0.000166608	669
bin	0.0001674624	618
bin	0.0001683168	635
bin	0.0001691712	670
bin	0.0001700256	631
bin	0.00017088	653
bin	0.0001717344	648
bin	0.0001725888	659
bin	0.0001734432	679
bin	0.0001742976	644
bin	0.000175152	690
bin	0.0001760064	691
bin	0.0001768608	727
bin	0.0001777152	698
bin	0.0001785696	685
bin	0.000179424	673
bin	0.0001802784	655
bin	0.0001811328	716
bin	0.0001819872	643
bin	0.0001828416	688
bin	0.000183696	667
bin	0.0001845504	658
bin	0.0001854048	658
bin	0.0001862592	645
bin	0.0001871136	665
bin	0.000187968	645
bin	0.0001888224	661
bin	0.0001896768	677
bin	0.0001905312	659
bin	0.0001913856	644
bin	0.00019224	679
bin	0.0001930944	663
bin	0.0001939488	629
bin	0.0001948032	604
bin	0.0001956576	621
bin	0.000196512	636
bin	0.0001973664	659
bin	0.0001982208	659
bin	0.0001990752	648
bin	0.0001999296	639
bin	0.000200784	632
bin	0.0002016384	633
bin	0.0002024928	630
bin	0.0002033472	620
bin	0.0002042016	647
bin	0.000205056	625
bin	0.0002059104	640
bin	0.0002067648	606
bin	0.0002076192	611
bin	0.0002084736	633
bin	0.000209328	608
bin	0.0002101824	588
bin	0.0002110368	611
bin	0.0002118912	594
bin	0.0002127456	606
bin	0.0002136	633
bin	0.0002144544	574
bin	0.0002153088	629
bin	0.0002161632	590
bin	0.0002170176	603
bin	0.000217872	599
bin	0.0002187264	588
bin	0.0002195808	610
bin	0.0002204352	583
bin	0.0002212896	580
bin	0.000222144	594
bin	0.0002229984	617
bin	0.0002238528	610
bin	0.0002247072	582
bin	0.0002255616	602
bin	0.000226416	576
bin	0.0002272704	590
bin	0.0002281248	577
bin	0.0002289792	602
bin	0.0002298336	600
bin	0.000230688	523
bin	0.0002315424	542
bin	0.0002323968	564
bin	0.0002332512	605
bin	0.0002341056	624
bin	0.00023496	615
bin	0.0002358144	600
bin	0.0002366688	579
bin	0.0002375232	592
bin	0.0002383776	591
bin	0.000239232	605
bin	0.0002400864	627
bin	0.0002409408	662
bin	0.0002417952	618
bin	0.0002426496	614
bin	0.000243504	585
bin	0.0002443584	644
bin	0.0002452128	610
bin	0.0002460672	604
bin	0.0002469216	579
bin	0.000247776	579
bin	0.0002486304	582
bin	0.0002494848	606
bin	0.0002503392	588
bin	0.0002511936	613
bin	0.000252048	590
bin	0.0002529024	605
bin	0.0002537568	560
bin	0.0002546112	566
bin	0.0002554656	662
bin	0.00025632	611
bin	0.0002571744	590
bin	0.0002580288	608
bin	0.0002588832	576
bin	0.0002597376	549
bin	0.000260592	519
bin	0.0002614464	568
bin	0.0002623008	541
bin	0.0002631552	546
bin	0.0002640096	561
bin	0.000264864	568
bin	0.0002657184	553
bin	0.0002665728	570
bin	0.0002674272	551
bin	0.0002682816	538
bin	0.000269136	500
bin	0.0002699904	511
bin	0.0002708448	561
bin	0.0002716992	548
bin	0.0002725536	506
bin	0.000273408	518
bin	0.0002742624	487
bin	0.0002751168	466
bin	0.0002759712	522
bin	0.0002768256	523
bin	0.00027768	513
bin	0.0002785344	548
bin	0.0002793888	527
bin	0.0002802432	553
bin	0.0002810976	537
bin	0.000281952	554
bin	0.0002828064	550
bin	0.0002836608	524
bin	0.0002845152	522
bin	0.0002853696	543
bin	0.000286224	497
bin	0.0002870784	523
bin	0.0002879328	513
bin	0.0002887872	503
bin	0.0002896416	503
bin	0.000290496	511
bin	0.0002913504	529
bin	0.0002922048	540
bin	0.0002930592	563
bin	0.0002939136	562
bin	0.000294768	533
bin	0.0002956224	555
bin	0.0002964768	538
bin	0.0002973312	554
bin	0.0002981856	535
bin	0.00029904	555
bin	0.0002998944	520
bin	0.0003007488	544
bin	0.0003016032	502
bin	0.0003024576	508
bin	0.000303312	489
bin	0.0003041664	526
bin	0.0003050208	498
bin	0.0003058752	522
bin	0.0003067296	519
bin	0.000307584	511
bin	0.0003084384	522
bin	0.0003092928	546
bin	0.0003101472	518
bin	0.0003110016	473
bin	0.000311856	484
bin	0.0003127104	474
bin	0.0003135648	511
bin	0.0003144192	494
bin	0.0003152736	469
bin	0.000316128	475
bin	0.0003169824	483
bin	0.0003178368	459
bin	0.0003186912	468
bin	0.0003195456	448
bin	0.0003204	455
bin	0.0003212544	460
bin	0.0003221088	455
bin	0.0003229632	418
bin	0.0003238176	431
bin	0.000324672	433
bin	0.0003255264	435
bin	0.0003263808	435
bin	0.0003272352	436
bin	0.0003280896	428
bin	0.000328944	430
bin	0.0003297984	455
bin	0.0003306528	437
bin	0.0003315072	430
bin	0.0003323616	424
bin	0.000333216	416
bin	0.0003340704	417
bin	0.0003349248	413
bin	0.0003357792	443
bin	0.0003366336	483
bin	0.000337488	475
bin	0.0003383424	460
bin	0.0003391968	447
bin	0.0003400512	466
bin	0.0003409056	481
bin	0.00034176	485
bin	0.0003426144	504
bin	0.0003434688	501
bin	0.0003443232	485
bin	0.0003451776	491
bin	0.000346032	516
bin	0.0003468864	505
bin	0.0003477408	496
bin	0.0003485952	505
bin	0.0003494496	500
bin	0.000350304	471
bin	0.0003511584	486
bin	0.0003520128	500
bin	0.0003528672	510
bin	0.0003537216	510
bin	0.000354576	458
bin	0.0003554304	467
bin	0.0003562848	420
bin	0.0003571392	467
bin	0.0003579936	486
bin	0.000358848	470
bin	0.0003597024	464
bin	0.0003605568	456
bin	0.0003614112	464
bin	0.0003622656	455
bin	0.00036312	454
bin	0.0003639744	448
bin	0.0003648288	502
bin	0.0003656832	477
bin	0.0003665376	484
bin	0.000367392	460
bin	0.0003682464	461
bin	0.0003691008	466
bin	0.0003699552	415
bin	0.0003708096	415
bin	0.000371664	377
bin	0.0003725184	389
bin	0.0003733728	396
bin	0.0003742272	366
bin	0.0003750816	400
bin	0.000375936	388
bin	0.0003767904	371
bin	0.0003776448	407
bin	0.0003784992	398
bin	0.0003793536	396
bin	0.000380208	397
bin	0.0003810624	408
bin	0.0003819168	405
bin	0.0003827712	431
bin	0.0003836256	463
bin	0.00038448	437
bin	0.0003853344	407
bin	0.0003861888	445
bin	0.0003870432	417
bin	0.0003878976	461
bin	0.000388752	441
bin	0.0003896064	428
bin	0.0003904608	422
bin	0.0003913152	445
bin	0.0003921696	449
bin	0.000393024	462
bin	0.0003938784	447
bin	0.0003947328	436
bin	0.0003955872	419
bin	0.0003964416	410
bin	0.000397296	431
bin	0.0003981504	434
bin	0.0003990048	420
bin	0.0003998592	401
bin	0.0004007136	378
bin	0.000401568	372
bin	0.0004024224	354
bin	0.0004032768	382
bin	0.0004041312	399
bin	0.0004049856	387
bin	0.00040584	389
bin	0.0004066944	429
bin	0.0004075488	420
bin	0.0004084032	405
bin	0.0004092576	367
bin	0.000410112	401
bin	0.0004109664	377
bin	0.0004118208	417
bin	0.0004126752	408
bin	0.0004135296	438
bin	0.000414384	449
bin	0.0004152384	426
bin	0.0004160928	430
bin	0.0004169472	401
bin	0.0004178016	394
bin	0.000418656	363
bin	0.0004195104	367
bin	0.0004203648	375
bin	0.0004212192	349
bin	0.0004220736	357
bin	0.000422928	395
bin	0.0004237824	371
bin	0.0004246368	359
bin	0.0004254912	404
bin	0.0004263456	401
bin	0.0004272	5765140
