version 2
run Bitcomplement-31-20120709-20:55:50-24912
attr alg 3
attr buf 8
attr configname Bitcomplement
attr datetime 20120709-20:55:50
attr delta 0.4
attr experiment Bitcomplement
attr ext false
attr inifile altro.ini
attr iterationvars "$buf=8, $ext=false, $ofedge=1, $delta=0.4, $alg=3"
attr iterationvars2 "$buf=8, $ext=false, $ofedge=1, $delta=0.4, $alg=3, $repetition=0"
attr measurement "$buf=8, $ext=false, $ofedge=1, $delta=0.4, $alg=3"
attr network Torus3d_bub
attr ofedge 1
attr processid 24912
attr repetition 0
attr replication #0
attr resultdir altro-results
attr runnumber 31
attr seedset 31

scalar . 	alg 	3
scalar . 	buf 	8
scalar . 	delta 	0.4
scalar . 	ofedge 	1
scalar Torus3d_bub.timer 	#endTime 	0.011116137649303
scalar Torus3d_bub.timer 	#totalHops 	99733636
scalar Torus3d_bub.timer 	#totalPacks 	6291456
scalar Torus3d_bub.timer 	#totalDerouted 	4798032
scalar Torus3d_bub.timer 	#totalOutFlanked 	3692906
scalar Torus3d_bub.timer 	#totalCQRed 	1105126
scalar Torus3d_bub.timer 	#LB 	0.000786432
scalar Torus3d_bub.timer 	#ratio 	0.070746874931808
statistic Torus3d_bub.timer 	"Hop Times"
field count 6291456
field mean 0.00030465151553616
field stddev 0.00028535201354033
field sum 1916.7016053291
field sqrsum 1.0962126269541
field min 4.16777777e-07
field max 0.003133747555555
bin	-INF	0
bin	0	0
bin	7.12e-08	0
bin	1.424e-07	0
bin	2.136e-07	0
bin	2.848e-07	0
bin	3.56e-07	17
bin	4.272e-07	320
bin	4.984e-07	2362
bin	5.696e-07	3005
bin	6.408e-07	3492
bin	7.12e-07	4413
bin	7.832e-07	5309
bin	8.544e-07	6598
bin	9.256e-07	7585
bin	9.968e-07	8707
bin	1.068e-06	9698
bin	1.1392e-06	10760
bin	1.2104e-06	12035
bin	1.2816e-06	12591
bin	1.3528e-06	13223
bin	1.424e-06	13752
bin	1.4952e-06	14297
bin	1.5664e-06	14520
bin	1.6376e-06	14785
bin	1.7088e-06	15005
bin	1.78e-06	14981
bin	1.8512e-06	15231
bin	1.9224e-06	15566
bin	1.9936e-06	15648
bin	2.0648e-06	15548
bin	2.136e-06	15575
bin	2.2072e-06	15703
bin	2.2784e-06	15598
bin	2.3496e-06	15791
bin	2.4208e-06	15571
bin	2.492e-06	15601
bin	2.5632e-06	15268
bin	2.6344e-06	15362
bin	2.7056e-06	15006
bin	2.7768e-06	14904
bin	2.848e-06	14803
bin	2.9192e-06	14645
bin	2.9904e-06	14583
bin	3.0616e-06	14099
bin	3.1328e-06	13776
bin	3.204e-06	13599
bin	3.2752e-06	12918
bin	3.3464e-06	12665
bin	3.4176e-06	12406
bin	3.4888e-06	11968
bin	3.56e-06	11331
bin	3.6312e-06	11332
bin	3.7024e-06	10820
bin	3.7736e-06	10157
bin	3.8448e-06	9754
bin	3.916e-06	9176
bin	3.9872e-06	8922
bin	4.0584e-06	8378
bin	4.1296e-06	7895
bin	4.2008e-06	7709
bin	4.272e-06	7380
bin	4.3432e-06	7029
bin	4.4144e-06	6633
bin	4.4856e-06	6376
bin	4.5568e-06	6170
bin	4.628e-06	5786
bin	4.6992e-06	5657
bin	4.7704e-06	5438
bin	4.8416e-06	5158
bin	4.9128e-06	5035
bin	4.984e-06	5016
bin	5.0552e-06	4821
bin	5.1264e-06	4580
bin	5.1976e-06	4417
bin	5.2688e-06	4330
bin	5.34e-06	4259
bin	5.4112e-06	4071
bin	5.4824e-06	4046
bin	5.5536e-06	3969
bin	5.6248e-06	3957
bin	5.696e-06	3865
bin	5.7672e-06	3792
bin	5.8384e-06	3768
bin	5.9096e-06	3685
bin	5.9808e-06	3532
bin	6.052e-06	3436
bin	6.1232e-06	3342
bin	6.1944e-06	3401
bin	6.2656e-06	3317
bin	6.3368e-06	3301
bin	6.408e-06	3132
bin	6.4792e-06	3079
bin	6.5504e-06	2966
bin	6.6216e-06	2917
bin	6.6928e-06	2916
bin	6.764e-06	2819
bin	6.8352e-06	2830
bin	6.9064e-06	2677
bin	6.9776e-06	2534
bin	7.0488e-06	2488
bin	7.12e-06	2487
bin	7.1912e-06	2492
bin	7.2624e-06	2355
bin	7.3336e-06	2364
bin	7.4048e-06	2328
bin	7.476e-06	2373
bin	7.5472e-06	2275
bin	7.6184e-06	2143
bin	7.6896e-06	2188
bin	7.7608e-06	2131
bin	7.832e-06	2128
bin	7.9032e-06	2121
bin	7.9744e-06	2089
bin	8.0456e-06	2052
bin	8.1168e-06	2105
bin	8.188e-06	2096
bin	8.2592e-06	2010
bin	8.3304e-06	2077
bin	8.4016e-06	2026
bin	8.4728e-06	1980
bin	8.544e-06	1922
bin	8.6152e-06	1892
bin	8.6864e-06	1832
bin	8.7576e-06	1808
bin	8.8288e-06	1862
bin	8.9e-06	1850
bin	8.9712e-06	1885
bin	9.0424e-06	1864
bin	9.1136e-06	1821
bin	9.1848e-06	1795
bin	9.256e-06	1795
bin	9.3272e-06	1807
bin	9.3984e-06	1853
bin	9.4696e-06	1744
bin	9.5408e-06	1765
bin	9.612e-06	1671
bin	9.6832e-06	1716
bin	9.7544e-06	1666
bin	9.8256e-06	1679
bin	9.8968e-06	1559
bin	9.968e-06	1561
bin	1.00392e-05	1511
bin	1.01104e-05	1521
bin	1.01816e-05	1474
bin	1.02528e-05	1442
bin	1.0324e-05	1474
bin	1.03952e-05	1450
bin	1.04664e-05	1414
bin	1.05376e-05	1442
bin	1.06088e-05	1387
bin	1.068e-05	1414
bin	1.07512e-05	1398
bin	1.08224e-05	1452
bin	1.08936e-05	1418
bin	1.09648e-05	1480
bin	1.1036e-05	1487
bin	1.11072e-05	1508
bin	1.11784e-05	1507
bin	1.12496e-05	1507
bin	1.13208e-05	1396
bin	1.1392e-05	1438
bin	1.14632e-05	1412
bin	1.15344e-05	1461
bin	1.16056e-05	1387
bin	1.16768e-05	1447
bin	1.1748e-05	1424
bin	1.18192e-05	1457
bin	1.18904e-05	1448
bin	1.19616e-05	1409
bin	1.20328e-05	1367
bin	1.2104e-05	1437
bin	1.21752e-05	1377
bin	1.22464e-05	1378
bin	1.23176e-05	1351
bin	1.23888e-05	1333
bin	1.246e-05	1221
bin	1.25312e-05	1203
bin	1.26024e-05	1184
bin	1.26736e-05	1186
bin	1.27448e-05	1288
bin	1.2816e-05	1200
bin	1.28872e-05	1169
bin	1.29584e-05	1236
bin	1.30296e-05	1223
bin	1.31008e-05	1206
bin	1.3172e-05	1177
bin	1.32432e-05	1203
bin	1.33144e-05	1148
bin	1.33856e-05	1193
bin	1.34568e-05	1148
bin	1.3528e-05	1146
bin	1.35992e-05	1143
bin	1.36704e-05	1104
bin	1.37416e-05	1150
bin	1.38128e-05	1176
bin	1.3884e-05	1160
bin	1.39552e-05	1158
bin	1.40264e-05	1142
bin	1.40976e-05	1123
bin	1.41688e-05	1182
bin	1.424e-05	1117
bin	1.43112e-05	1101
bin	1.43824e-05	1130
bin	1.44536e-05	1213
bin	1.45248e-05	1186
bin	1.4596e-05	1137
bin	1.46672e-05	1169
bin	1.47384e-05	1106
bin	1.48096e-05	1190
bin	1.48808e-05	1105
bin	1.4952e-05	1095
bin	1.50232e-05	1158
bin	1.50944e-05	1152
bin	1.51656e-05	1117
bin	1.52368e-05	1077
bin	1.5308e-05	1082
bin	1.53792e-05	1072
bin	1.54504e-05	1046
bin	1.55216e-05	1000
bin	1.55928e-05	969
bin	1.5664e-05	1033
bin	1.57352e-05	1019
bin	1.58064e-05	930
bin	1.58776e-05	999
bin	1.59488e-05	945
bin	1.602e-05	933
bin	1.60912e-05	946
bin	1.61624e-05	961
bin	1.62336e-05	976
bin	1.63048e-05	927
bin	1.6376e-05	899
bin	1.64472e-05	960
bin	1.65184e-05	929
bin	1.65896e-05	897
bin	1.66608e-05	905
bin	1.6732e-05	891
bin	1.68032e-05	932
bin	1.68744e-05	940
bin	1.69456e-05	972
bin	1.70168e-05	993
bin	1.7088e-05	1020
bin	1.71592e-05	992
bin	1.72304e-05	977
bin	1.73016e-05	933
bin	1.73728e-05	927
bin	1.7444e-05	934
bin	1.75152e-05	946
bin	1.75864e-05	924
bin	1.76576e-05	994
bin	1.77288e-05	936
bin	1.78e-05	968
bin	1.78712e-05	933
bin	1.79424e-05	943
bin	1.80136e-05	947
bin	1.80848e-05	926
bin	1.8156e-05	888
bin	1.82272e-05	919
bin	1.82984e-05	849
bin	1.83696e-05	918
bin	1.84408e-05	930
bin	1.8512e-05	918
bin	1.85832e-05	957
bin	1.86544e-05	941
bin	1.87256e-05	930
bin	1.87968e-05	945
bin	1.8868e-05	913
bin	1.89392e-05	865
bin	1.90104e-05	911
bin	1.90816e-05	852
bin	1.91528e-05	791
bin	1.9224e-05	807
bin	1.92952e-05	839
bin	1.93664e-05	775
bin	1.94376e-05	762
bin	1.95088e-05	773
bin	1.958e-05	814
bin	1.96512e-05	814
bin	1.97224e-05	867
bin	1.97936e-05	869
bin	1.98648e-05	855
bin	1.9936e-05	790
bin	2.00072e-05	833
bin	2.00784e-05	844
bin	2.01496e-05	834
bin	2.02208e-05	854
bin	2.0292e-05	845
bin	2.03632e-05	849
bin	2.04344e-05	847
bin	2.05056e-05	786
bin	2.05768e-05	823
bin	2.0648e-05	811
bin	2.07192e-05	812
bin	2.07904e-05	853
bin	2.08616e-05	835
bin	2.09328e-05	874
bin	2.1004e-05	864
bin	2.10752e-05	849
bin	2.11464e-05	841
bin	2.12176e-05	829
bin	2.12888e-05	810
bin	2.136e-05	758
bin	2.14312e-05	785
bin	2.15024e-05	799
bin	2.15736e-05	795
bin	2.16448e-05	812
bin	2.1716e-05	807
bin	2.17872e-05	834
bin	2.18584e-05	744
bin	2.19296e-05	796
bin	2.20008e-05	779
bin	2.2072e-05	800
bin	2.21432e-05	768
bin	2.22144e-05	739
bin	2.22856e-05	736
bin	2.23568e-05	707
bin	2.2428e-05	715
bin	2.24992e-05	732
bin	2.25704e-05	749
bin	2.26416e-05	706
bin	2.27128e-05	730
bin	2.2784e-05	731
bin	2.28552e-05	711
bin	2.29264e-05	742
bin	2.29976e-05	692
bin	2.30688e-05	672
bin	2.314e-05	628
bin	2.32112e-05	699
bin	2.32824e-05	677
bin	2.33536e-05	688
bin	2.34248e-05	727
bin	2.3496e-05	687
bin	2.35672e-05	664
bin	2.36384e-05	682
bin	2.37096e-05	687
bin	2.37808e-05	756
bin	2.3852e-05	724
bin	2.39232e-05	650
bin	2.39944e-05	728
bin	2.40656e-05	736
bin	2.41368e-05	675
bin	2.4208e-05	738
bin	2.42792e-05	704
bin	2.43504e-05	725
bin	2.44216e-05	750
bin	2.44928e-05	738
bin	2.4564e-05	762
bin	2.46352e-05	694
bin	2.47064e-05	735
bin	2.47776e-05	759
bin	2.48488e-05	696
bin	2.492e-05	686
bin	2.49912e-05	669
bin	2.50624e-05	703
bin	2.51336e-05	709
bin	2.52048e-05	675
bin	2.5276e-05	701
bin	2.53472e-05	685
bin	2.54184e-05	662
bin	2.54896e-05	714
bin	2.55608e-05	715
bin	2.5632e-05	703
bin	2.57032e-05	708
bin	2.57744e-05	754
bin	2.58456e-05	709
bin	2.59168e-05	744
bin	2.5988e-05	661
bin	2.60592e-05	642
bin	2.61304e-05	659
bin	2.62016e-05	661
bin	2.62728e-05	754
bin	2.6344e-05	691
bin	2.64152e-05	739
bin	2.64864e-05	686
bin	2.65576e-05	701
bin	2.66288e-05	698
bin	2.67e-05	713
bin	2.67712e-05	674
bin	2.68424e-05	704
bin	2.69136e-05	728
bin	2.69848e-05	711
bin	2.7056e-05	714
bin	2.71272e-05	679
bin	2.71984e-05	674
bin	2.72696e-05	644
bin	2.73408e-05	688
bin	2.7412e-05	618
bin	2.74832e-05	693
bin	2.75544e-05	717
bin	2.76256e-05	699
bin	2.76968e-05	702
bin	2.7768e-05	659
bin	2.78392e-05	621
bin	2.79104e-05	658
bin	2.79816e-05	634
bin	2.80528e-05	623
bin	2.8124e-05	651
bin	2.81952e-05	628
bin	2.82664e-05	652
bin	2.83376e-05	606
bin	2.84088e-05	638
bin	2.848e-05	653
bin	2.85512e-05	677
bin	2.86224e-05	701
bin	2.86936e-05	662
bin	2.87648e-05	651
bin	2.8836e-05	614
bin	2.89072e-05	642
bin	2.89784e-05	634
bin	2.90496e-05	693
bin	2.91208e-05	687
bin	2.9192e-05	656
bin	2.92632e-05	684
bin	2.93344e-05	710
bin	2.94056e-05	726
bin	2.94768e-05	710
bin	2.9548e-05	719
bin	2.96192e-05	715
bin	2.96904e-05	652
bin	2.97616e-05	678
bin	2.98328e-05	700
bin	2.9904e-05	607
bin	2.99752e-05	637
bin	3.00464e-05	608
bin	3.01176e-05	624
bin	3.01888e-05	594
bin	3.026e-05	660
bin	3.03312e-05	647
bin	3.04024e-05	589
bin	3.04736e-05	628
bin	3.05448e-05	569
bin	3.0616e-05	581
bin	3.06872e-05	562
bin	3.07584e-05	524
bin	3.08296e-05	549
bin	3.09008e-05	579
bin	3.0972e-05	530
bin	3.10432e-05	530
bin	3.11144e-05	545
bin	3.11856e-05	628
bin	3.12568e-05	573
bin	3.1328e-05	627
bin	3.13992e-05	577
bin	3.14704e-05	629
bin	3.15416e-05	600
bin	3.16128e-05	591
bin	3.1684e-05	630
bin	3.17552e-05	673
bin	3.18264e-05	702
bin	3.18976e-05	668
bin	3.19688e-05	679
bin	3.204e-05	644
bin	3.21112e-05	643
bin	3.21824e-05	661
bin	3.22536e-05	701
bin	3.23248e-05	692
bin	3.2396e-05	672
bin	3.24672e-05	649
bin	3.25384e-05	605
bin	3.26096e-05	665
bin	3.26808e-05	720
bin	3.2752e-05	731
bin	3.28232e-05	713
bin	3.28944e-05	721
bin	3.29656e-05	745
bin	3.30368e-05	697
bin	3.3108e-05	737
bin	3.31792e-05	665
bin	3.32504e-05	677
bin	3.33216e-05	629
bin	3.33928e-05	639
bin	3.3464e-05	635
bin	3.35352e-05	607
bin	3.36064e-05	647
bin	3.36776e-05	614
bin	3.37488e-05	620
bin	3.382e-05	619
bin	3.38912e-05	589
bin	3.39624e-05	568
bin	3.40336e-05	590
bin	3.41048e-05	615
bin	3.4176e-05	626
bin	3.42472e-05	578
bin	3.43184e-05	595
bin	3.43896e-05	650
bin	3.44608e-05	592
bin	3.4532e-05	650
bin	3.46032e-05	658
bin	3.46744e-05	642
bin	3.47456e-05	589
bin	3.48168e-05	674
bin	3.4888e-05	613
bin	3.49592e-05	615
bin	3.50304e-05	630
bin	3.51016e-05	646
bin	3.51728e-05	594
bin	3.5244e-05	647
bin	3.53152e-05	674
bin	3.53864e-05	643
bin	3.54576e-05	605
bin	3.55288e-05	606
bin	3.56e-05	5100784
statistic Torus3d_bub.timer 	"Life Times"
field count 6291456
field mean 0.0040007870948409
field stddev 0.002680245014418
field sum 25170.77597256
field sqrsum 145.89892487275
field min 1.250333333e-06
field max 0.011006431983217
bin	-INF	0
bin	0	0
bin	8.544e-07	64
bin	1.7088e-06	124
bin	2.5632e-06	450
bin	3.4176e-06	838
bin	4.272e-06	1362
bin	5.1264e-06	1642
bin	5.9808e-06	1935
bin	6.8352e-06	2240
bin	7.6896e-06	2546
bin	8.544e-06	2811
bin	9.3984e-06	3257
bin	1.02528e-05	3454
bin	1.11072e-05	3644
bin	1.19616e-05	3783
bin	1.2816e-05	4071
bin	1.36704e-05	4321
bin	1.45248e-05	4480
bin	1.53792e-05	4856
bin	1.62336e-05	4998
bin	1.7088e-05	5054
bin	1.79424e-05	5379
bin	1.87968e-05	5542
bin	1.96512e-05	5838
bin	2.05056e-05	6153
bin	2.136e-05	6192
bin	2.22144e-05	6652
bin	2.30688e-05	6951
bin	2.39232e-05	7163
bin	2.47776e-05	7429
bin	2.5632e-05	7702
bin	2.64864e-05	7826
bin	2.73408e-05	8225
bin	2.81952e-05	8137
bin	2.90496e-05	8533
bin	2.9904e-05	8783
bin	3.07584e-05	8559
bin	3.16128e-05	8865
bin	3.24672e-05	9006
bin	3.33216e-05	9080
bin	3.4176e-05	9319
bin	3.50304e-05	9180
bin	3.58848e-05	9456
bin	3.67392e-05	9633
bin	3.75936e-05	9618
bin	3.8448e-05	9797
bin	3.93024e-05	9824
bin	4.01568e-05	9929
bin	4.10112e-05	10105
bin	4.18656e-05	10154
bin	4.272e-05	10441
bin	4.35744e-05	10427
bin	4.44288e-05	10356
bin	4.52832e-05	10383
bin	4.61376e-05	10454
bin	4.6992e-05	10432
bin	4.78464e-05	10525
bin	4.87008e-05	10518
bin	4.95552e-05	10570
bin	5.04096e-05	10673
bin	5.1264e-05	10556
bin	5.21184e-05	10681
bin	5.29728e-05	10506
bin	5.38272e-05	10515
bin	5.46816e-05	10606
bin	5.5536e-05	10536
bin	5.63904e-05	10427
bin	5.72448e-05	10560
bin	5.80992e-05	10336
bin	5.89536e-05	10457
bin	5.9808e-05	10333
bin	6.06624e-05	10091
bin	6.15168e-05	10254
bin	6.23712e-05	9369
bin	6.32256e-05	9108
bin	6.408e-05	8917
bin	6.49344e-05	8599
bin	6.57888e-05	8259
bin	6.66432e-05	7821
bin	6.74976e-05	7627
bin	6.8352e-05	7349
bin	6.92064e-05	7135
bin	7.00608e-05	6743
bin	7.09152e-05	6400
bin	7.17696e-05	6204
bin	7.2624e-05	5632
bin	7.34784e-05	5438
bin	7.43328e-05	5073
bin	7.51872e-05	4907
bin	7.60416e-05	4604
bin	7.6896e-05	4455
bin	7.77504e-05	4130
bin	7.86048e-05	3917
bin	7.94592e-05	3642
bin	8.03136e-05	3403
bin	8.1168e-05	3391
bin	8.20224e-05	3156
bin	8.28768e-05	3179
bin	8.37312e-05	3047
bin	8.45856e-05	3044
bin	8.544e-05	2896
bin	8.62944e-05	2774
bin	8.71488e-05	2772
bin	8.80032e-05	2768
bin	8.88576e-05	2600
bin	8.9712e-05	2708
bin	9.05664e-05	2639
bin	9.14208e-05	2542
bin	9.22752e-05	2491
bin	9.31296e-05	2557
bin	9.3984e-05	2478
bin	9.48384e-05	2498
bin	9.56928e-05	2364
bin	9.65472e-05	2357
bin	9.74016e-05	2289
bin	9.8256e-05	2212
bin	9.91104e-05	2279
bin	9.99648e-05	2264
bin	0.0001008192	2213
bin	0.0001016736	2186
bin	0.000102528	2019
bin	0.0001033824	2057
bin	0.0001042368	2043
bin	0.0001050912	2005
bin	0.0001059456	2069
bin	0.0001068	2010
bin	0.0001076544	2048
bin	0.0001085088	2073
bin	0.0001093632	2063
bin	0.0001102176	2037
bin	0.000111072	2088
bin	0.0001119264	2145
bin	0.0001127808	2006
bin	0.0001136352	2012
bin	0.0001144896	2056
bin	0.000115344	2120
bin	0.0001161984	2117
bin	0.0001170528	2118
bin	0.0001179072	2120
bin	0.0001187616	2092
bin	0.000119616	2073
bin	0.0001204704	2076
bin	0.0001213248	2064
bin	0.0001221792	2133
bin	0.0001230336	2167
bin	0.000123888	2082
bin	0.0001247424	2072
bin	0.0001255968	2120
bin	0.0001264512	2020
bin	0.0001273056	2073
bin	0.00012816	2009
bin	0.0001290144	2045
bin	0.0001298688	2021
bin	0.0001307232	2024
bin	0.0001315776	2007
bin	0.000132432	2016
bin	0.0001332864	1891
bin	0.0001341408	1834
bin	0.0001349952	1790
bin	0.0001358496	1773
bin	0.000136704	1736
bin	0.0001375584	1603
bin	0.0001384128	1572
bin	0.0001392672	1524
bin	0.0001401216	1480
bin	0.000140976	1470
bin	0.0001418304	1421
bin	0.0001426848	1379
bin	0.0001435392	1425
bin	0.0001443936	1431
bin	0.000145248	1350
bin	0.0001461024	1249
bin	0.0001469568	1211
bin	0.0001478112	1219
bin	0.0001486656	1174
bin	0.00014952	1098
bin	0.0001503744	1236
bin	0.0001512288	1256
bin	0.0001520832	1261
bin	0.0001529376	1151
bin	0.000153792	1169
bin	0.0001546464	1134
bin	0.0001555008	1151
bin	0.0001563552	1143
bin	0.0001572096	1158
bin	0.000158064	1165
bin	0.0001589184	1091
bin	0.0001597728	1157
bin	0.0001606272	1105
bin	0.0001614816	1120
bin	0.000162336	1091
bin	0.0001631904	1091
bin	0.0001640448	1152
bin	0.0001648992	1146
bin	0.0001657536	1106
bin	0.000166608	1101
bin	0.0001674624	1113
bin	0.0001683168	1102
bin	0.0001691712	1147
bin	0.0001700256	1101
bin	0.00017088	1130
bin	0.0001717344	1150
bin	0.0001725888	1160
bin	0.0001734432	1162
bin	0.0001742976	1129
bin	0.000175152	1206
bin	0.0001760064	1127
bin	0.0001768608	1095
bin	0.0001777152	1078
bin	0.0001785696	1100
bin	0.000179424	1110
bin	0.0001802784	1099
bin	0.0001811328	1129
bin	0.0001819872	1127
bin	0.0001828416	1132
bin	0.000183696	1153
bin	0.0001845504	1175
bin	0.0001854048	1196
bin	0.0001862592	1273
bin	0.0001871136	1249
bin	0.000187968	1217
bin	0.0001888224	1261
bin	0.0001896768	1229
bin	0.0001905312	1199
bin	0.0001913856	1179
bin	0.00019224	1183
bin	0.0001930944	1179
bin	0.0001939488	1153
bin	0.0001948032	1205
bin	0.0001956576	1180
bin	0.000196512	1218
bin	0.0001973664	1153
bin	0.0001982208	1154
bin	0.0001990752	1099
bin	0.0001999296	1152
bin	0.000200784	1052
bin	0.0002016384	1071
bin	0.0002024928	1017
bin	0.0002033472	1056
bin	0.0002042016	998
bin	0.000205056	975
bin	0.0002059104	933
bin	0.0002067648	965
bin	0.0002076192	907
bin	0.0002084736	897
bin	0.000209328	915
bin	0.0002101824	829
bin	0.0002110368	878
bin	0.0002118912	816
bin	0.0002127456	839
bin	0.0002136	768
bin	0.0002144544	758
bin	0.0002153088	765
bin	0.0002161632	752
bin	0.0002170176	752
bin	0.000217872	779
bin	0.0002187264	752
bin	0.0002195808	796
bin	0.0002204352	747
bin	0.0002212896	775
bin	0.000222144	842
bin	0.0002229984	821
bin	0.0002238528	770
bin	0.0002247072	782
bin	0.0002255616	793
bin	0.000226416	774
bin	0.0002272704	748
bin	0.0002281248	776
bin	0.0002289792	793
bin	0.0002298336	788
bin	0.000230688	795
bin	0.0002315424	867
bin	0.0002323968	841
bin	0.0002332512	794
bin	0.0002341056	861
bin	0.00023496	884
bin	0.0002358144	849
bin	0.0002366688	886
bin	0.0002375232	887
bin	0.0002383776	878
bin	0.000239232	897
bin	0.0002400864	904
bin	0.0002409408	859
bin	0.0002417952	904
bin	0.0002426496	876
bin	0.000243504	955
bin	0.0002443584	842
bin	0.0002452128	903
bin	0.0002460672	968
bin	0.0002469216	943
bin	0.000247776	934
bin	0.0002486304	921
bin	0.0002494848	899
bin	0.0002503392	917
bin	0.0002511936	926
bin	0.000252048	956
bin	0.0002529024	986
bin	0.0002537568	976
bin	0.0002546112	942
bin	0.0002554656	957
bin	0.00025632	879
bin	0.0002571744	896
bin	0.0002580288	884
bin	0.0002588832	893
bin	0.0002597376	855
bin	0.000260592	873
bin	0.0002614464	840
bin	0.0002623008	835
bin	0.0002631552	777
bin	0.0002640096	770
bin	0.000264864	752
bin	0.0002657184	763
bin	0.0002665728	760
bin	0.0002674272	727
bin	0.0002682816	721
bin	0.000269136	700
bin	0.0002699904	668
bin	0.0002708448	659
bin	0.0002716992	677
bin	0.0002725536	628
bin	0.000273408	658
bin	0.0002742624	596
bin	0.0002751168	613
bin	0.0002759712	590
bin	0.0002768256	587
bin	0.00027768	576
bin	0.0002785344	672
bin	0.0002793888	612
bin	0.0002802432	629
bin	0.0002810976	654
bin	0.000281952	630
bin	0.0002828064	613
bin	0.0002836608	644
bin	0.0002845152	637
bin	0.0002853696	665
bin	0.000286224	671
bin	0.0002870784	665
bin	0.0002879328	625
bin	0.0002887872	671
bin	0.0002896416	642
bin	0.000290496	665
bin	0.0002913504	636
bin	0.0002922048	655
bin	0.0002930592	621
bin	0.0002939136	646
bin	0.000294768	650
bin	0.0002956224	617
bin	0.0002964768	651
bin	0.0002973312	692
bin	0.0002981856	736
bin	0.00029904	685
bin	0.0002998944	686
bin	0.0003007488	713
bin	0.0003016032	732
bin	0.0003024576	779
bin	0.000303312	728
bin	0.0003041664	767
bin	0.0003050208	728
bin	0.0003058752	786
bin	0.0003067296	794
bin	0.000307584	802
bin	0.0003084384	824
bin	0.0003092928	803
bin	0.0003101472	799
bin	0.0003110016	844
bin	0.000311856	800
bin	0.0003127104	847
bin	0.0003135648	757
bin	0.0003144192	760
bin	0.0003152736	797
bin	0.000316128	788
bin	0.0003169824	827
bin	0.0003178368	772
bin	0.0003186912	773
bin	0.0003195456	739
bin	0.0003204	733
bin	0.0003212544	720
bin	0.0003221088	694
bin	0.0003229632	727
bin	0.0003238176	643
bin	0.000324672	632
bin	0.0003255264	608
bin	0.0003263808	621
bin	0.0003272352	596
bin	0.0003280896	531
bin	0.000328944	574
bin	0.0003297984	572
bin	0.0003306528	542
bin	0.0003315072	538
bin	0.0003323616	563
bin	0.000333216	587
bin	0.0003340704	580
bin	0.0003349248	568
bin	0.0003357792	558
bin	0.0003366336	579
bin	0.000337488	575
bin	0.0003383424	591
bin	0.0003391968	585
bin	0.0003400512	557
bin	0.0003409056	571
bin	0.00034176	554
bin	0.0003426144	532
bin	0.0003434688	560
bin	0.0003443232	514
bin	0.0003451776	489
bin	0.000346032	521
bin	0.0003468864	494
bin	0.0003477408	543
bin	0.0003485952	549
bin	0.0003494496	593
bin	0.000350304	555
bin	0.0003511584	576
bin	0.0003520128	585
bin	0.0003528672	609
bin	0.0003537216	623
bin	0.000354576	611
bin	0.0003554304	587
bin	0.0003562848	632
bin	0.0003571392	628
bin	0.0003579936	588
bin	0.000358848	619
bin	0.0003597024	636
bin	0.0003605568	629
bin	0.0003614112	608
bin	0.0003622656	648
bin	0.00036312	606
bin	0.0003639744	610
bin	0.0003648288	607
bin	0.0003656832	585
bin	0.0003665376	663
bin	0.000367392	626
bin	0.0003682464	620
bin	0.0003691008	605
bin	0.0003699552	617
bin	0.0003708096	623
bin	0.000371664	649
bin	0.0003725184	626
bin	0.0003733728	625
bin	0.0003742272	640
bin	0.0003750816	645
bin	0.000375936	632
bin	0.0003767904	653
bin	0.0003776448	663
bin	0.0003784992	567
bin	0.0003793536	589
bin	0.000380208	601
bin	0.0003810624	551
bin	0.0003819168	537
bin	0.0003827712	542
bin	0.0003836256	490
bin	0.00038448	534
bin	0.0003853344	541
bin	0.0003861888	509
bin	0.0003870432	543
bin	0.0003878976	543
bin	0.000388752	504
bin	0.0003896064	500
bin	0.0003904608	507
bin	0.0003913152	469
bin	0.0003921696	517
bin	0.000393024	473
bin	0.0003938784	471
bin	0.0003947328	489
bin	0.0003955872	518
bin	0.0003964416	487
bin	0.000397296	490
bin	0.0003981504	470
bin	0.0003990048	502
bin	0.0003998592	488
bin	0.0004007136	461
bin	0.000401568	478
bin	0.0004024224	412
bin	0.0004032768	426
bin	0.0004041312	410
bin	0.0004049856	401
bin	0.00040584	393
bin	0.0004066944	409
bin	0.0004075488	428
bin	0.0004084032	425
bin	0.0004092576	430
bin	0.000410112	432
bin	0.0004109664	446
bin	0.0004118208	435
bin	0.0004126752	478
bin	0.0004135296	495
bin	0.000414384	487
bin	0.0004152384	481
bin	0.0004160928	455
bin	0.0004169472	475
bin	0.0004178016	491
bin	0.000418656	490
bin	0.0004195104	485
bin	0.0004203648	496
bin	0.0004212192	466
bin	0.0004220736	497
bin	0.000422928	473
bin	0.0004237824	489
bin	0.0004246368	511
bin	0.0004254912	528
bin	0.0004263456	505
bin	0.0004272	5199970
