version 2
run Bitcomplement-35-20120709-21:18:13-24924
attr alg 3
attr buf 8
attr configname Bitcomplement
attr datetime 20120709-21:18:13
attr delta 0.6
attr experiment Bitcomplement
attr ext false
attr inifile altro.ini
attr iterationvars "$buf=8, $ext=false, $ofedge=1, $delta=0.6, $alg=3"
attr iterationvars2 "$buf=8, $ext=false, $ofedge=1, $delta=0.6, $alg=3, $repetition=0"
attr measurement "$buf=8, $ext=false, $ofedge=1, $delta=0.6, $alg=3"
attr network Torus3d_bub
attr ofedge 1
attr processid 24924
attr repetition 0
attr replication #0
attr resultdir altro-results
attr runnumber 35
attr seedset 35

scalar . 	alg 	3
scalar . 	buf 	8
scalar . 	delta 	0.6
scalar . 	ofedge 	1
scalar Torus3d_bub.timer 	#endTime 	0.011988812314605
scalar Torus3d_bub.timer 	#totalHops 	99703620
scalar Torus3d_bub.timer 	#totalPacks 	6291456
scalar Torus3d_bub.timer 	#totalDerouted 	4772946
scalar Torus3d_bub.timer 	#totalOutFlanked 	3646372
scalar Torus3d_bub.timer 	#totalCQRed 	1126574
scalar Torus3d_bub.timer 	#LB 	0.000786432
scalar Torus3d_bub.timer 	#ratio 	0.065597156695993
statistic Torus3d_bub.timer 	"Hop Times"
field count 6291456
field mean 0.00037177143637939
field stddev 0.00031336786958026
field sum 2338.9836340377
field sqrsum 1.487384547853
field min 4.16777777e-07
field max 0.003287543111111
bin	-INF	0
bin	0	0
bin	7.12e-08	0
bin	1.424e-07	0
bin	2.136e-07	0
bin	2.848e-07	0
bin	3.56e-07	16
bin	4.272e-07	178
bin	4.984e-07	1588
bin	5.696e-07	1941
bin	6.408e-07	2197
bin	7.12e-07	2551
bin	7.832e-07	3026
bin	8.544e-07	3789
bin	9.256e-07	4294
bin	9.968e-07	5106
bin	1.068e-06	5731
bin	1.1392e-06	6488
bin	1.2104e-06	7085
bin	1.2816e-06	7782
bin	1.3528e-06	8312
bin	1.424e-06	8641
bin	1.4952e-06	9141
bin	1.5664e-06	9411
bin	1.6376e-06	9627
bin	1.7088e-06	9816
bin	1.78e-06	10147
bin	1.8512e-06	9955
bin	1.9224e-06	9826
bin	1.9936e-06	9731
bin	2.0648e-06	9634
bin	2.136e-06	9573
bin	2.2072e-06	9201
bin	2.2784e-06	9123
bin	2.3496e-06	9036
bin	2.4208e-06	8759
bin	2.492e-06	8547
bin	2.5632e-06	8301
bin	2.6344e-06	7909
bin	2.7056e-06	7506
bin	2.7768e-06	6885
bin	2.848e-06	6543
bin	2.9192e-06	6203
bin	2.9904e-06	5749
bin	3.0616e-06	5259
bin	3.1328e-06	4947
bin	3.204e-06	4654
bin	3.2752e-06	4481
bin	3.3464e-06	4214
bin	3.4176e-06	4030
bin	3.4888e-06	3803
bin	3.56e-06	3676
bin	3.6312e-06	3562
bin	3.7024e-06	3329
bin	3.7736e-06	3241
bin	3.8448e-06	3128
bin	3.916e-06	2978
bin	3.9872e-06	2836
bin	4.0584e-06	2774
bin	4.1296e-06	2805
bin	4.2008e-06	2719
bin	4.272e-06	2608
bin	4.3432e-06	2466
bin	4.4144e-06	2483
bin	4.4856e-06	2401
bin	4.5568e-06	2311
bin	4.628e-06	2235
bin	4.6992e-06	2149
bin	4.7704e-06	2114
bin	4.8416e-06	2031
bin	4.9128e-06	2091
bin	4.984e-06	2085
bin	5.0552e-06	2083
bin	5.1264e-06	1997
bin	5.1976e-06	1977
bin	5.2688e-06	1920
bin	5.34e-06	1792
bin	5.4112e-06	1735
bin	5.4824e-06	1727
bin	5.5536e-06	1654
bin	5.6248e-06	1673
bin	5.696e-06	1543
bin	5.7672e-06	1518
bin	5.8384e-06	1567
bin	5.9096e-06	1443
bin	5.9808e-06	1499
bin	6.052e-06	1599
bin	6.1232e-06	1552
bin	6.1944e-06	1532
bin	6.2656e-06	1595
bin	6.3368e-06	1583
bin	6.408e-06	1641
bin	6.4792e-06	1585
bin	6.5504e-06	1529
bin	6.6216e-06	1442
bin	6.6928e-06	1426
bin	6.764e-06	1413
bin	6.8352e-06	1433
bin	6.9064e-06	1535
bin	6.9776e-06	1514
bin	7.0488e-06	1458
bin	7.12e-06	1438
bin	7.1912e-06	1351
bin	7.2624e-06	1303
bin	7.3336e-06	1386
bin	7.4048e-06	1361
bin	7.476e-06	1363
bin	7.5472e-06	1314
bin	7.6184e-06	1329
bin	7.6896e-06	1352
bin	7.7608e-06	1353
bin	7.832e-06	1326
bin	7.9032e-06	1394
bin	7.9744e-06	1292
bin	8.0456e-06	1322
bin	8.1168e-06	1378
bin	8.188e-06	1392
bin	8.2592e-06	1265
bin	8.3304e-06	1312
bin	8.4016e-06	1305
bin	8.4728e-06	1317
bin	8.544e-06	1249
bin	8.6152e-06	1207
bin	8.6864e-06	1173
bin	8.7576e-06	1204
bin	8.8288e-06	1203
bin	8.9e-06	1180
bin	8.9712e-06	1183
bin	9.0424e-06	1147
bin	9.1136e-06	1178
bin	9.1848e-06	1161
bin	9.256e-06	1106
bin	9.3272e-06	1181
bin	9.3984e-06	1120
bin	9.4696e-06	1133
bin	9.5408e-06	1069
bin	9.612e-06	1068
bin	9.6832e-06	1132
bin	9.7544e-06	1080
bin	9.8256e-06	1096
bin	9.8968e-06	1045
bin	9.968e-06	1042
bin	1.00392e-05	1021
bin	1.01104e-05	1106
bin	1.01816e-05	1129
bin	1.02528e-05	1107
bin	1.0324e-05	1076
bin	1.03952e-05	1112
bin	1.04664e-05	1081
bin	1.05376e-05	1076
bin	1.06088e-05	1010
bin	1.068e-05	1053
bin	1.07512e-05	1040
bin	1.08224e-05	1030
bin	1.08936e-05	922
bin	1.09648e-05	947
bin	1.1036e-05	1028
bin	1.11072e-05	999
bin	1.11784e-05	971
bin	1.12496e-05	938
bin	1.13208e-05	1001
bin	1.1392e-05	982
bin	1.14632e-05	951
bin	1.15344e-05	951
bin	1.16056e-05	896
bin	1.16768e-05	932
bin	1.1748e-05	928
bin	1.18192e-05	915
bin	1.18904e-05	870
bin	1.19616e-05	889
bin	1.20328e-05	868
bin	1.2104e-05	882
bin	1.21752e-05	943
bin	1.22464e-05	933
bin	1.23176e-05	944
bin	1.23888e-05	870
bin	1.246e-05	908
bin	1.25312e-05	852
bin	1.26024e-05	846
bin	1.26736e-05	803
bin	1.27448e-05	825
bin	1.2816e-05	856
bin	1.28872e-05	853
bin	1.29584e-05	873
bin	1.30296e-05	856
bin	1.31008e-05	843
bin	1.3172e-05	901
bin	1.32432e-05	903
bin	1.33144e-05	874
bin	1.33856e-05	805
bin	1.34568e-05	886
bin	1.3528e-05	848
bin	1.35992e-05	855
bin	1.36704e-05	901
bin	1.37416e-05	867
bin	1.38128e-05	877
bin	1.3884e-05	944
bin	1.39552e-05	942
bin	1.40264e-05	941
bin	1.40976e-05	928
bin	1.41688e-05	905
bin	1.424e-05	920
bin	1.43112e-05	922
bin	1.43824e-05	916
bin	1.44536e-05	863
bin	1.45248e-05	826
bin	1.4596e-05	846
bin	1.46672e-05	812
bin	1.47384e-05	795
bin	1.48096e-05	856
bin	1.48808e-05	901
bin	1.4952e-05	821
bin	1.50232e-05	824
bin	1.50944e-05	781
bin	1.51656e-05	749
bin	1.52368e-05	806
bin	1.5308e-05	833
bin	1.53792e-05	847
bin	1.54504e-05	810
bin	1.55216e-05	792
bin	1.55928e-05	814
bin	1.5664e-05	859
bin	1.57352e-05	837
bin	1.58064e-05	846
bin	1.58776e-05	844
bin	1.59488e-05	824
bin	1.602e-05	803
bin	1.60912e-05	743
bin	1.61624e-05	759
bin	1.62336e-05	679
bin	1.63048e-05	751
bin	1.6376e-05	781
bin	1.64472e-05	754
bin	1.65184e-05	724
bin	1.65896e-05	729
bin	1.66608e-05	739
bin	1.6732e-05	671
bin	1.68032e-05	697
bin	1.68744e-05	741
bin	1.69456e-05	762
bin	1.70168e-05	722
bin	1.7088e-05	684
bin	1.71592e-05	690
bin	1.72304e-05	725
bin	1.73016e-05	722
bin	1.73728e-05	679
bin	1.7444e-05	640
bin	1.75152e-05	662
bin	1.75864e-05	702
bin	1.76576e-05	745
bin	1.77288e-05	697
bin	1.78e-05	719
bin	1.78712e-05	700
bin	1.79424e-05	733
bin	1.80136e-05	736
bin	1.80848e-05	730
bin	1.8156e-05	666
bin	1.82272e-05	683
bin	1.82984e-05	671
bin	1.83696e-05	702
bin	1.84408e-05	702
bin	1.8512e-05	713
bin	1.85832e-05	648
bin	1.86544e-05	659
bin	1.87256e-05	670
bin	1.87968e-05	657
bin	1.8868e-05	630
bin	1.89392e-05	663
bin	1.90104e-05	697
bin	1.90816e-05	654
bin	1.91528e-05	676
bin	1.9224e-05	686
bin	1.92952e-05	652
bin	1.93664e-05	703
bin	1.94376e-05	650
bin	1.95088e-05	617
bin	1.958e-05	643
bin	1.96512e-05	644
bin	1.97224e-05	659
bin	1.97936e-05	698
bin	1.98648e-05	659
bin	1.9936e-05	677
bin	2.00072e-05	711
bin	2.00784e-05	741
bin	2.01496e-05	711
bin	2.02208e-05	692
bin	2.0292e-05	675
bin	2.03632e-05	680
bin	2.04344e-05	671
bin	2.05056e-05	651
bin	2.05768e-05	609
bin	2.0648e-05	602
bin	2.07192e-05	612
bin	2.07904e-05	635
bin	2.08616e-05	608
bin	2.09328e-05	651
bin	2.1004e-05	601
bin	2.10752e-05	588
bin	2.11464e-05	597
bin	2.12176e-05	578
bin	2.12888e-05	581
bin	2.136e-05	584
bin	2.14312e-05	670
bin	2.15024e-05	676
bin	2.15736e-05	688
bin	2.16448e-05	637
bin	2.1716e-05	665
bin	2.17872e-05	656
bin	2.18584e-05	644
bin	2.19296e-05	613
bin	2.20008e-05	664
bin	2.2072e-05	660
bin	2.21432e-05	651
bin	2.22144e-05	653
bin	2.22856e-05	659
bin	2.23568e-05	632
bin	2.2428e-05	655
bin	2.24992e-05	655
bin	2.25704e-05	695
bin	2.26416e-05	663
bin	2.27128e-05	625
bin	2.2784e-05	591
bin	2.28552e-05	580
bin	2.29264e-05	578
bin	2.29976e-05	622
bin	2.30688e-05	575
bin	2.314e-05	581
bin	2.32112e-05	566
bin	2.32824e-05	552
bin	2.33536e-05	558
bin	2.34248e-05	575
bin	2.3496e-05	577
bin	2.35672e-05	618
bin	2.36384e-05	661
bin	2.37096e-05	660
bin	2.37808e-05	687
bin	2.3852e-05	677
bin	2.39232e-05	675
bin	2.39944e-05	673
bin	2.40656e-05	666
bin	2.41368e-05	634
bin	2.4208e-05	604
bin	2.42792e-05	589
bin	2.43504e-05	607
bin	2.44216e-05	592
bin	2.44928e-05	644
bin	2.4564e-05	595
bin	2.46352e-05	576
bin	2.47064e-05	573
bin	2.47776e-05	632
bin	2.48488e-05	626
bin	2.492e-05	642
bin	2.49912e-05	618
bin	2.50624e-05	597
bin	2.51336e-05	619
bin	2.52048e-05	595
bin	2.5276e-05	587
bin	2.53472e-05	573
bin	2.54184e-05	605
bin	2.54896e-05	569
bin	2.55608e-05	574
bin	2.5632e-05	605
bin	2.57032e-05	600
bin	2.57744e-05	629
bin	2.58456e-05	588
bin	2.59168e-05	645
bin	2.5988e-05	601
bin	2.60592e-05	588
bin	2.61304e-05	568
bin	2.62016e-05	598
bin	2.62728e-05	602
bin	2.6344e-05	602
bin	2.64152e-05	596
bin	2.64864e-05	602
bin	2.65576e-05	619
bin	2.66288e-05	604
bin	2.67e-05	578
bin	2.67712e-05	518
bin	2.68424e-05	574
bin	2.69136e-05	592
bin	2.69848e-05	559
bin	2.7056e-05	565
bin	2.71272e-05	549
bin	2.71984e-05	536
bin	2.72696e-05	538
bin	2.73408e-05	551
bin	2.7412e-05	565
bin	2.74832e-05	591
bin	2.75544e-05	603
bin	2.76256e-05	623
bin	2.76968e-05	637
bin	2.7768e-05	594
bin	2.78392e-05	614
bin	2.79104e-05	655
bin	2.79816e-05	653
bin	2.80528e-05	630
bin	2.8124e-05	586
bin	2.81952e-05	596
bin	2.82664e-05	526
bin	2.83376e-05	543
bin	2.84088e-05	540
bin	2.848e-05	543
bin	2.85512e-05	548
bin	2.86224e-05	546
bin	2.86936e-05	554
bin	2.87648e-05	564
bin	2.8836e-05	561
bin	2.89072e-05	562
bin	2.89784e-05	513
bin	2.90496e-05	525
bin	2.91208e-05	534
bin	2.9192e-05	544
bin	2.92632e-05	567
bin	2.93344e-05	553
bin	2.94056e-05	510
bin	2.94768e-05	540
bin	2.9548e-05	568
bin	2.96192e-05	551
bin	2.96904e-05	561
bin	2.97616e-05	552
bin	2.98328e-05	551
bin	2.9904e-05	558
bin	2.99752e-05	534
bin	3.00464e-05	565
bin	3.01176e-05	567
bin	3.01888e-05	565
bin	3.026e-05	544
bin	3.03312e-05	499
bin	3.04024e-05	510
bin	3.04736e-05	546
bin	3.05448e-05	517
bin	3.0616e-05	553
bin	3.06872e-05	559
bin	3.07584e-05	534
bin	3.08296e-05	563
bin	3.09008e-05	545
bin	3.0972e-05	571
bin	3.10432e-05	560
bin	3.11144e-05	555
bin	3.11856e-05	491
bin	3.12568e-05	484
bin	3.1328e-05	496
bin	3.13992e-05	478
bin	3.14704e-05	521
bin	3.15416e-05	489
bin	3.16128e-05	543
bin	3.1684e-05	548
bin	3.17552e-05	603
bin	3.18264e-05	542
bin	3.18976e-05	531
bin	3.19688e-05	479
bin	3.204e-05	522
bin	3.21112e-05	487
bin	3.21824e-05	505
bin	3.22536e-05	544
bin	3.23248e-05	558
bin	3.2396e-05	500
bin	3.24672e-05	531
bin	3.25384e-05	525
bin	3.26096e-05	521
bin	3.26808e-05	516
bin	3.2752e-05	546
bin	3.28232e-05	510
bin	3.28944e-05	519
bin	3.29656e-05	524
bin	3.30368e-05	476
bin	3.3108e-05	471
bin	3.31792e-05	512
bin	3.32504e-05	523
bin	3.33216e-05	508
bin	3.33928e-05	518
bin	3.3464e-05	518
bin	3.35352e-05	470
bin	3.36064e-05	482
bin	3.36776e-05	496
bin	3.37488e-05	529
bin	3.382e-05	544
bin	3.38912e-05	515
bin	3.39624e-05	537
bin	3.40336e-05	557
bin	3.41048e-05	502
bin	3.4176e-05	511
bin	3.42472e-05	500
bin	3.43184e-05	560
bin	3.43896e-05	546
bin	3.44608e-05	496
bin	3.4532e-05	519
bin	3.46032e-05	541
bin	3.46744e-05	534
bin	3.47456e-05	547
bin	3.48168e-05	526
bin	3.4888e-05	525
bin	3.49592e-05	544
bin	3.50304e-05	507
bin	3.51016e-05	519
bin	3.51728e-05	499
bin	3.5244e-05	519
bin	3.53152e-05	520
bin	3.53864e-05	534
bin	3.54576e-05	523
bin	3.55288e-05	555
bin	3.56e-05	5605575
statistic Torus3d_bub.timer 	"Life Times"
field count 6291456
field mean 0.0049693689784063
field stddev 0.0028188083224206
field sum 31264.566275408
field sqrsum 205.35505619253
field min 1.250333333e-06
field max 0.011671349315101
bin	-INF	0
bin	0	0
bin	8.544e-07	71
bin	1.7088e-06	144
bin	2.5632e-06	418
bin	3.4176e-06	725
bin	4.272e-06	1190
bin	5.1264e-06	1358
bin	5.9808e-06	1454
bin	6.8352e-06	1608
bin	7.6896e-06	1826
bin	8.544e-06	2076
bin	9.3984e-06	2285
bin	1.02528e-05	2391
bin	1.11072e-05	2680
bin	1.19616e-05	2788
bin	1.2816e-05	2893
bin	1.36704e-05	2918
bin	1.45248e-05	3085
bin	1.53792e-05	3199
bin	1.62336e-05	3276
bin	1.7088e-05	3322
bin	1.79424e-05	3467
bin	1.87968e-05	3581
bin	1.96512e-05	3745
bin	2.05056e-05	3960
bin	2.136e-05	4024
bin	2.22144e-05	4128
bin	2.30688e-05	4263
bin	2.39232e-05	4522
bin	2.47776e-05	4757
bin	2.5632e-05	5013
bin	2.64864e-05	5137
bin	2.73408e-05	5253
bin	2.81952e-05	5516
bin	2.90496e-05	5583
bin	2.9904e-05	5556
bin	3.07584e-05	5742
bin	3.16128e-05	5778
bin	3.24672e-05	5790
bin	3.33216e-05	6120
bin	3.4176e-05	6180
bin	3.50304e-05	6167
bin	3.58848e-05	6170
bin	3.67392e-05	6380
bin	3.75936e-05	6273
bin	3.8448e-05	6408
bin	3.93024e-05	6488
bin	4.01568e-05	6511
bin	4.10112e-05	6361
bin	4.18656e-05	6185
bin	4.272e-05	6030
bin	4.35744e-05	5859
bin	4.44288e-05	5686
bin	4.52832e-05	5721
bin	4.61376e-05	5458
bin	4.6992e-05	5259
bin	4.78464e-05	5010
bin	4.87008e-05	4949
bin	4.95552e-05	4647
bin	5.04096e-05	4309
bin	5.1264e-05	4155
bin	5.21184e-05	4080
bin	5.29728e-05	3954
bin	5.38272e-05	3771
bin	5.46816e-05	3628
bin	5.5536e-05	3461
bin	5.63904e-05	3279
bin	5.72448e-05	3063
bin	5.80992e-05	2962
bin	5.89536e-05	2781
bin	5.9808e-05	2738
bin	6.06624e-05	2514
bin	6.15168e-05	2567
bin	6.23712e-05	2484
bin	6.32256e-05	2335
bin	6.408e-05	2232
bin	6.49344e-05	2134
bin	6.57888e-05	2069
bin	6.66432e-05	2038
bin	6.74976e-05	1937
bin	6.8352e-05	1931
bin	6.92064e-05	1883
bin	7.00608e-05	1861
bin	7.09152e-05	1787
bin	7.17696e-05	1811
bin	7.2624e-05	1801
bin	7.34784e-05	1792
bin	7.43328e-05	1741
bin	7.51872e-05	1686
bin	7.60416e-05	1823
bin	7.6896e-05	1621
bin	7.77504e-05	1622
bin	7.86048e-05	1664
bin	7.94592e-05	1589
bin	8.03136e-05	1656
bin	8.1168e-05	1565
bin	8.20224e-05	1552
bin	8.28768e-05	1560
bin	8.37312e-05	1555
bin	8.45856e-05	1578
bin	8.544e-05	1493
bin	8.62944e-05	1446
bin	8.71488e-05	1386
bin	8.80032e-05	1391
bin	8.88576e-05	1339
bin	8.9712e-05	1420
bin	9.05664e-05	1392
bin	9.14208e-05	1326
bin	9.22752e-05	1319
bin	9.31296e-05	1228
bin	9.3984e-05	1261
bin	9.48384e-05	1210
bin	9.56928e-05	1309
bin	9.65472e-05	1263
bin	9.74016e-05	1242
bin	9.8256e-05	1216
bin	9.91104e-05	1205
bin	9.99648e-05	1214
bin	0.0001008192	1118
bin	0.0001016736	1155
bin	0.000102528	1114
bin	0.0001033824	1166
bin	0.0001042368	1082
bin	0.0001050912	1061
bin	0.0001059456	1093
bin	0.0001068	1074
bin	0.0001076544	1015
bin	0.0001085088	1124
bin	0.0001093632	996
bin	0.0001102176	1020
bin	0.000111072	1042
bin	0.0001119264	1007
bin	0.0001127808	980
bin	0.0001136352	969
bin	0.0001144896	1011
bin	0.000115344	962
bin	0.0001161984	988
bin	0.0001170528	1047
bin	0.0001179072	1001
bin	0.0001187616	1028
bin	0.000119616	935
bin	0.0001204704	985
bin	0.0001213248	942
bin	0.0001221792	979
bin	0.0001230336	1016
bin	0.000123888	1012
bin	0.0001247424	915
bin	0.0001255968	971
bin	0.0001264512	998
bin	0.0001273056	1003
bin	0.00012816	943
bin	0.0001290144	953
bin	0.0001298688	990
bin	0.0001307232	969
bin	0.0001315776	983
bin	0.000132432	995
bin	0.0001332864	1032
bin	0.0001341408	979
bin	0.0001349952	976
bin	0.0001358496	943
bin	0.000136704	891
bin	0.0001375584	960
bin	0.0001384128	911
bin	0.0001392672	891
bin	0.0001401216	926
bin	0.000140976	910
bin	0.0001418304	901
bin	0.0001426848	958
bin	0.0001435392	928
bin	0.0001443936	919
bin	0.000145248	915
bin	0.0001461024	928
bin	0.0001469568	869
bin	0.0001478112	844
bin	0.0001486656	855
bin	0.00014952	831
bin	0.0001503744	826
bin	0.0001512288	816
bin	0.0001520832	810
bin	0.0001529376	771
bin	0.000153792	797
bin	0.0001546464	837
bin	0.0001555008	843
bin	0.0001563552	796
bin	0.0001572096	831
bin	0.000158064	798
bin	0.0001589184	807
bin	0.0001597728	778
bin	0.0001606272	827
bin	0.0001614816	849
bin	0.000162336	797
bin	0.0001631904	749
bin	0.0001640448	804
bin	0.0001648992	781
bin	0.0001657536	796
bin	0.000166608	832
bin	0.0001674624	868
bin	0.0001683168	788
bin	0.0001691712	824
bin	0.0001700256	838
bin	0.00017088	837
bin	0.0001717344	821
bin	0.0001725888	800
bin	0.0001734432	770
bin	0.0001742976	746
bin	0.000175152	802
bin	0.0001760064	759
bin	0.0001768608	770
bin	0.0001777152	764
bin	0.0001785696	749
bin	0.000179424	742
bin	0.0001802784	753
bin	0.0001811328	770
bin	0.0001819872	771
bin	0.0001828416	753
bin	0.000183696	729
bin	0.0001845504	715
bin	0.0001854048	702
bin	0.0001862592	676
bin	0.0001871136	713
bin	0.000187968	686
bin	0.0001888224	718
bin	0.0001896768	664
bin	0.0001905312	702
bin	0.0001913856	677
bin	0.00019224	651
bin	0.0001930944	690
bin	0.0001939488	669
bin	0.0001948032	696
bin	0.0001956576	653
bin	0.000196512	627
bin	0.0001973664	606
bin	0.0001982208	663
bin	0.0001990752	642
bin	0.0001999296	681
bin	0.000200784	662
bin	0.0002016384	651
bin	0.0002024928	666
bin	0.0002033472	649
bin	0.0002042016	666
bin	0.000205056	652
bin	0.0002059104	685
bin	0.0002067648	696
bin	0.0002076192	671
bin	0.0002084736	625
bin	0.000209328	655
bin	0.0002101824	638
bin	0.0002110368	639
bin	0.0002118912	657
bin	0.0002127456	624
bin	0.0002136	641
bin	0.0002144544	626
bin	0.0002153088	644
bin	0.0002161632	624
bin	0.0002170176	622
bin	0.000217872	650
bin	0.0002187264	635
bin	0.0002195808	643
bin	0.0002204352	629
bin	0.0002212896	650
bin	0.000222144	612
bin	0.0002229984	604
bin	0.0002238528	633
bin	0.0002247072	607
bin	0.0002255616	617
bin	0.000226416	577
bin	0.0002272704	591
bin	0.0002281248	594
bin	0.0002289792	596
bin	0.0002298336	578
bin	0.000230688	529
bin	0.0002315424	544
bin	0.0002323968	527
bin	0.0002332512	575
bin	0.0002341056	570
bin	0.00023496	543
bin	0.0002358144	544
bin	0.0002366688	542
bin	0.0002375232	525
bin	0.0002383776	550
bin	0.000239232	521
bin	0.0002400864	545
bin	0.0002409408	535
bin	0.0002417952	553
bin	0.0002426496	555
bin	0.000243504	552
bin	0.0002443584	537
bin	0.0002452128	556
bin	0.0002460672	570
bin	0.0002469216	525
bin	0.000247776	531
bin	0.0002486304	520
bin	0.0002494848	535
bin	0.0002503392	539
bin	0.0002511936	540
bin	0.000252048	583
bin	0.0002529024	555
bin	0.0002537568	578
bin	0.0002546112	538
bin	0.0002554656	530
bin	0.00025632	538
bin	0.0002571744	530
bin	0.0002580288	514
bin	0.0002588832	568
bin	0.0002597376	597
bin	0.000260592	563
bin	0.0002614464	613
bin	0.0002623008	595
bin	0.0002631552	560
bin	0.0002640096	565
bin	0.000264864	592
bin	0.0002657184	553
bin	0.0002665728	570
bin	0.0002674272	575
bin	0.0002682816	498
bin	0.000269136	544
bin	0.0002699904	538
bin	0.0002708448	539
bin	0.0002716992	564
bin	0.0002725536	549
bin	0.000273408	503
bin	0.0002742624	511
bin	0.0002751168	515
bin	0.0002759712	522
bin	0.0002768256	524
bin	0.00027768	571
bin	0.0002785344	563
bin	0.0002793888	560
bin	0.0002802432	546
bin	0.0002810976	523
bin	0.000281952	563
bin	0.0002828064	517
bin	0.0002836608	550
bin	0.0002845152	528
bin	0.0002853696	547
bin	0.000286224	563
bin	0.0002870784	570
bin	0.0002879328	548
bin	0.0002887872	540
bin	0.0002896416	553
bin	0.000290496	561
bin	0.0002913504	555
bin	0.0002922048	535
bin	0.0002930592	546
bin	0.0002939136	556
bin	0.000294768	548
bin	0.0002956224	551
bin	0.0002964768	521
bin	0.0002973312	545
bin	0.0002981856	529
bin	0.00029904	535
bin	0.0002998944	564
bin	0.0003007488	522
bin	0.0003016032	516
bin	0.0003024576	489
bin	0.000303312	561
bin	0.0003041664	550
bin	0.0003050208	515
bin	0.0003058752	507
bin	0.0003067296	491
bin	0.000307584	503
bin	0.0003084384	531
bin	0.0003092928	507
bin	0.0003101472	485
bin	0.0003110016	490
bin	0.000311856	503
bin	0.0003127104	517
bin	0.0003135648	507
bin	0.0003144192	517
bin	0.0003152736	507
bin	0.000316128	533
bin	0.0003169824	475
bin	0.0003178368	467
bin	0.0003186912	464
bin	0.0003195456	473
bin	0.0003204	472
bin	0.0003212544	453
bin	0.0003221088	504
bin	0.0003229632	469
bin	0.0003238176	496
bin	0.000324672	457
bin	0.0003255264	469
bin	0.0003263808	471
bin	0.0003272352	462
bin	0.0003280896	460
bin	0.000328944	523
bin	0.0003297984	487
bin	0.0003306528	490
bin	0.0003315072	468
bin	0.0003323616	473
bin	0.000333216	477
bin	0.0003340704	508
bin	0.0003349248	482
bin	0.0003357792	515
bin	0.0003366336	541
bin	0.000337488	485
bin	0.0003383424	474
bin	0.0003391968	470
bin	0.0003400512	466
bin	0.0003409056	486
bin	0.00034176	507
bin	0.0003426144	526
bin	0.0003434688	505
bin	0.0003443232	458
bin	0.0003451776	445
bin	0.000346032	461
bin	0.0003468864	443
bin	0.0003477408	464
bin	0.0003485952	454
bin	0.0003494496	456
bin	0.000350304	456
bin	0.0003511584	446
bin	0.0003520128	459
bin	0.0003528672	455
bin	0.0003537216	449
bin	0.000354576	402
bin	0.0003554304	404
bin	0.0003562848	395
bin	0.0003571392	401
bin	0.0003579936	411
bin	0.000358848	379
bin	0.0003597024	422
bin	0.0003605568	425
bin	0.0003614112	434
bin	0.0003622656	461
bin	0.00036312	440
bin	0.0003639744	431
bin	0.0003648288	436
bin	0.0003656832	445
bin	0.0003665376	435
bin	0.000367392	447
bin	0.0003682464	444
bin	0.0003691008	443
bin	0.0003699552	443
bin	0.0003708096	457
bin	0.000371664	455
bin	0.0003725184	430
bin	0.0003733728	430
bin	0.0003742272	460
bin	0.0003750816	476
bin	0.000375936	464
bin	0.0003767904	478
bin	0.0003776448	455
bin	0.0003784992	457
bin	0.0003793536	441
bin	0.000380208	446
bin	0.0003810624	465
bin	0.0003819168	469
bin	0.0003827712	467
bin	0.0003836256	441
bin	0.00038448	452
bin	0.0003853344	436
bin	0.0003861888	414
bin	0.0003870432	403
bin	0.0003878976	413
bin	0.000388752	409
bin	0.0003896064	423
bin	0.0003904608	437
bin	0.0003913152	439
bin	0.0003921696	441
bin	0.000393024	427
bin	0.0003938784	434
bin	0.0003947328	418
bin	0.0003955872	414
bin	0.0003964416	422
bin	0.000397296	399
bin	0.0003981504	428
bin	0.0003990048	408
bin	0.0003998592	398
bin	0.0004007136	410
bin	0.000401568	422
bin	0.0004024224	403
bin	0.0004032768	440
bin	0.0004041312	419
bin	0.0004049856	404
bin	0.00040584	419
bin	0.0004066944	414
bin	0.0004075488	432
bin	0.0004084032	398
bin	0.0004092576	446
bin	0.000410112	434
bin	0.0004109664	437
bin	0.0004118208	439
bin	0.0004126752	471
bin	0.0004135296	442
bin	0.000414384	456
bin	0.0004152384	451
bin	0.0004160928	449
bin	0.0004169472	458
bin	0.0004178016	412
bin	0.000418656	457
bin	0.0004195104	457
bin	0.0004203648	449
bin	0.0004212192	483
bin	0.0004220736	499
bin	0.000422928	474
bin	0.0004237824	451
bin	0.0004246368	465
bin	0.0004254912	448
bin	0.0004263456	429
bin	0.0004272	5691376
