version 2
run Bitcomplement-29-20120709-20:30:30-24908
attr alg 1
attr buf 8
attr configname Bitcomplement
attr datetime 20120709-20:30:30
attr delta 0.4
attr experiment Bitcomplement
attr ext false
attr inifile altro.ini
attr iterationvars "$buf=8, $ext=false, $ofedge=1, $delta=0.4, $alg=1"
attr iterationvars2 "$buf=8, $ext=false, $ofedge=1, $delta=0.4, $alg=1, $repetition=0"
attr measurement "$buf=8, $ext=false, $ofedge=1, $delta=0.4, $alg=1"
attr network Torus3d_bub
attr ofedge 1
attr processid 24908
attr repetition 0
attr replication #0
attr resultdir altro-results
attr runnumber 29
attr seedset 29

scalar . 	alg 	1
scalar . 	buf 	8
scalar . 	delta 	0.4
scalar . 	ofedge 	1
scalar Torus3d_bub.timer 	#endTime 	0.013527345645537
scalar Torus3d_bub.timer 	#totalHops 	102535076
scalar Torus3d_bub.timer 	#totalPacks 	6291456
scalar Torus3d_bub.timer 	#totalDerouted 	4127509
scalar Torus3d_bub.timer 	#totalOutFlanked 	4127509
scalar Torus3d_bub.timer 	#totalCQRed 	0
scalar Torus3d_bub.timer 	#LB 	0.000786432
scalar Torus3d_bub.timer 	#ratio 	0.058136460811103
statistic Torus3d_bub.timer 	"Hop Times"
field count 6291456
field mean 0.000435508292236
field stddev 0.00035940593350757
field sum 2739.9812582379
field sqrsum 2.0059683162077
field min 4.16777777e-07
field max 0.003891520438365
bin	-INF	0
bin	0	0
bin	7.12e-08	0
bin	1.424e-07	0
bin	2.136e-07	0
bin	2.848e-07	0
bin	3.56e-07	16
bin	4.272e-07	269
bin	4.984e-07	2218
bin	5.696e-07	2953
bin	6.408e-07	2968
bin	7.12e-07	3301
bin	7.832e-07	3718
bin	8.544e-07	4231
bin	9.256e-07	4783
bin	9.968e-07	5330
bin	1.068e-06	5868
bin	1.1392e-06	6103
bin	1.2104e-06	6696
bin	1.2816e-06	7008
bin	1.3528e-06	7351
bin	1.424e-06	7591
bin	1.4952e-06	7661
bin	1.5664e-06	8040
bin	1.6376e-06	7901
bin	1.7088e-06	7914
bin	1.78e-06	7836
bin	1.8512e-06	7803
bin	1.9224e-06	7676
bin	1.9936e-06	7700
bin	2.0648e-06	7665
bin	2.136e-06	7542
bin	2.2072e-06	7688
bin	2.2784e-06	7641
bin	2.3496e-06	7665
bin	2.4208e-06	7766
bin	2.492e-06	7730
bin	2.5632e-06	7884
bin	2.6344e-06	7797
bin	2.7056e-06	7751
bin	2.7768e-06	7568
bin	2.848e-06	7471
bin	2.9192e-06	7137
bin	2.9904e-06	7098
bin	3.0616e-06	6832
bin	3.1328e-06	6784
bin	3.204e-06	6546
bin	3.2752e-06	6324
bin	3.3464e-06	6343
bin	3.4176e-06	6177
bin	3.4888e-06	5889
bin	3.56e-06	5915
bin	3.6312e-06	5610
bin	3.7024e-06	5523
bin	3.7736e-06	5239
bin	3.8448e-06	5108
bin	3.916e-06	4925
bin	3.9872e-06	4733
bin	4.0584e-06	4648
bin	4.1296e-06	4514
bin	4.2008e-06	4334
bin	4.272e-06	4158
bin	4.3432e-06	4077
bin	4.4144e-06	3913
bin	4.4856e-06	3621
bin	4.5568e-06	3407
bin	4.628e-06	3316
bin	4.6992e-06	3123
bin	4.7704e-06	2955
bin	4.8416e-06	2851
bin	4.9128e-06	2767
bin	4.984e-06	2627
bin	5.0552e-06	2531
bin	5.1264e-06	2403
bin	5.1976e-06	2527
bin	5.2688e-06	2286
bin	5.34e-06	2225
bin	5.4112e-06	2252
bin	5.4824e-06	2061
bin	5.5536e-06	2115
bin	5.6248e-06	2105
bin	5.696e-06	2166
bin	5.7672e-06	2069
bin	5.8384e-06	2189
bin	5.9096e-06	2069
bin	5.9808e-06	2012
bin	6.052e-06	1984
bin	6.1232e-06	1872
bin	6.1944e-06	1863
bin	6.2656e-06	1864
bin	6.3368e-06	1885
bin	6.408e-06	1778
bin	6.4792e-06	1779
bin	6.5504e-06	1672
bin	6.6216e-06	1657
bin	6.6928e-06	1624
bin	6.764e-06	1636
bin	6.8352e-06	1527
bin	6.9064e-06	1489
bin	6.9776e-06	1471
bin	7.0488e-06	1578
bin	7.12e-06	1550
bin	7.1912e-06	1460
bin	7.2624e-06	1395
bin	7.3336e-06	1420
bin	7.4048e-06	1365
bin	7.476e-06	1364
bin	7.5472e-06	1373
bin	7.6184e-06	1370
bin	7.6896e-06	1255
bin	7.7608e-06	1286
bin	7.832e-06	1253
bin	7.9032e-06	1209
bin	7.9744e-06	1153
bin	8.0456e-06	1174
bin	8.1168e-06	1166
bin	8.188e-06	1163
bin	8.2592e-06	1164
bin	8.3304e-06	1133
bin	8.4016e-06	1119
bin	8.4728e-06	1143
bin	8.544e-06	1080
bin	8.6152e-06	1085
bin	8.6864e-06	1072
bin	8.7576e-06	1088
bin	8.8288e-06	1095
bin	8.9e-06	1101
bin	8.9712e-06	993
bin	9.0424e-06	1026
bin	9.1136e-06	924
bin	9.1848e-06	927
bin	9.256e-06	921
bin	9.3272e-06	1011
bin	9.3984e-06	948
bin	9.4696e-06	964
bin	9.5408e-06	963
bin	9.612e-06	931
bin	9.6832e-06	906
bin	9.7544e-06	944
bin	9.8256e-06	985
bin	9.8968e-06	929
bin	9.968e-06	959
bin	1.00392e-05	944
bin	1.01104e-05	951
bin	1.01816e-05	987
bin	1.02528e-05	907
bin	1.0324e-05	910
bin	1.03952e-05	907
bin	1.04664e-05	915
bin	1.05376e-05	984
bin	1.06088e-05	1005
bin	1.068e-05	956
bin	1.07512e-05	867
bin	1.08224e-05	881
bin	1.08936e-05	872
bin	1.09648e-05	859
bin	1.1036e-05	824
bin	1.11072e-05	826
bin	1.11784e-05	816
bin	1.12496e-05	863
bin	1.13208e-05	846
bin	1.1392e-05	809
bin	1.14632e-05	846
bin	1.15344e-05	866
bin	1.16056e-05	797
bin	1.16768e-05	773
bin	1.1748e-05	758
bin	1.18192e-05	752
bin	1.18904e-05	755
bin	1.19616e-05	706
bin	1.20328e-05	719
bin	1.2104e-05	687
bin	1.21752e-05	696
bin	1.22464e-05	740
bin	1.23176e-05	787
bin	1.23888e-05	822
bin	1.246e-05	798
bin	1.25312e-05	751
bin	1.26024e-05	791
bin	1.26736e-05	814
bin	1.27448e-05	780
bin	1.2816e-05	768
bin	1.28872e-05	744
bin	1.29584e-05	753
bin	1.30296e-05	732
bin	1.31008e-05	724
bin	1.3172e-05	682
bin	1.32432e-05	716
bin	1.33144e-05	691
bin	1.33856e-05	711
bin	1.34568e-05	727
bin	1.3528e-05	735
bin	1.35992e-05	784
bin	1.36704e-05	765
bin	1.37416e-05	799
bin	1.38128e-05	821
bin	1.3884e-05	793
bin	1.39552e-05	771
bin	1.40264e-05	775
bin	1.40976e-05	752
bin	1.41688e-05	800
bin	1.424e-05	727
bin	1.43112e-05	762
bin	1.43824e-05	791
bin	1.44536e-05	788
bin	1.45248e-05	731
bin	1.4596e-05	711
bin	1.46672e-05	701
bin	1.47384e-05	697
bin	1.48096e-05	711
bin	1.48808e-05	634
bin	1.4952e-05	646
bin	1.50232e-05	672
bin	1.50944e-05	675
bin	1.51656e-05	672
bin	1.52368e-05	682
bin	1.5308e-05	674
bin	1.53792e-05	652
bin	1.54504e-05	682
bin	1.55216e-05	706
bin	1.55928e-05	712
bin	1.5664e-05	668
bin	1.57352e-05	667
bin	1.58064e-05	691
bin	1.58776e-05	690
bin	1.59488e-05	648
bin	1.602e-05	658
bin	1.60912e-05	709
bin	1.61624e-05	636
bin	1.62336e-05	699
bin	1.63048e-05	706
bin	1.6376e-05	659
bin	1.64472e-05	640
bin	1.65184e-05	672
bin	1.65896e-05	716
bin	1.66608e-05	685
bin	1.6732e-05	673
bin	1.68032e-05	651
bin	1.68744e-05	648
bin	1.69456e-05	710
bin	1.70168e-05	676
bin	1.7088e-05	638
bin	1.71592e-05	646
bin	1.72304e-05	647
bin	1.73016e-05	664
bin	1.73728e-05	608
bin	1.7444e-05	622
bin	1.75152e-05	645
bin	1.75864e-05	606
bin	1.76576e-05	615
bin	1.77288e-05	596
bin	1.78e-05	580
bin	1.78712e-05	616
bin	1.79424e-05	567
bin	1.80136e-05	542
bin	1.80848e-05	571
bin	1.8156e-05	557
bin	1.82272e-05	545
bin	1.82984e-05	610
bin	1.83696e-05	631
bin	1.84408e-05	637
bin	1.8512e-05	632
bin	1.85832e-05	605
bin	1.86544e-05	622
bin	1.87256e-05	623
bin	1.87968e-05	625
bin	1.8868e-05	589
bin	1.89392e-05	555
bin	1.90104e-05	557
bin	1.90816e-05	565
bin	1.91528e-05	545
bin	1.9224e-05	570
bin	1.92952e-05	557
bin	1.93664e-05	524
bin	1.94376e-05	538
bin	1.95088e-05	545
bin	1.958e-05	615
bin	1.96512e-05	585
bin	1.97224e-05	603
bin	1.97936e-05	567
bin	1.98648e-05	559
bin	1.9936e-05	476
bin	2.00072e-05	510
bin	2.00784e-05	565
bin	2.01496e-05	560
bin	2.02208e-05	542
bin	2.0292e-05	551
bin	2.03632e-05	561
bin	2.04344e-05	540
bin	2.05056e-05	517
bin	2.05768e-05	492
bin	2.0648e-05	500
bin	2.07192e-05	527
bin	2.07904e-05	528
bin	2.08616e-05	514
bin	2.09328e-05	503
bin	2.1004e-05	468
bin	2.10752e-05	527
bin	2.11464e-05	521
bin	2.12176e-05	535
bin	2.12888e-05	565
bin	2.136e-05	558
bin	2.14312e-05	552
bin	2.15024e-05	476
bin	2.15736e-05	500
bin	2.16448e-05	520
bin	2.1716e-05	562
bin	2.17872e-05	555
bin	2.18584e-05	552
bin	2.19296e-05	552
bin	2.20008e-05	553
bin	2.2072e-05	532
bin	2.21432e-05	510
bin	2.22144e-05	480
bin	2.22856e-05	486
bin	2.23568e-05	468
bin	2.2428e-05	474
bin	2.24992e-05	491
bin	2.25704e-05	532
bin	2.26416e-05	533
bin	2.27128e-05	518
bin	2.2784e-05	497
bin	2.28552e-05	532
bin	2.29264e-05	498
bin	2.29976e-05	488
bin	2.30688e-05	486
bin	2.314e-05	508
bin	2.32112e-05	487
bin	2.32824e-05	520
bin	2.33536e-05	498
bin	2.34248e-05	516
bin	2.3496e-05	515
bin	2.35672e-05	524
bin	2.36384e-05	486
bin	2.37096e-05	459
bin	2.37808e-05	486
bin	2.3852e-05	443
bin	2.39232e-05	478
bin	2.39944e-05	483
bin	2.40656e-05	475
bin	2.41368e-05	466
bin	2.4208e-05	482
bin	2.42792e-05	527
bin	2.43504e-05	509
bin	2.44216e-05	490
bin	2.44928e-05	468
bin	2.4564e-05	460
bin	2.46352e-05	421
bin	2.47064e-05	455
bin	2.47776e-05	486
bin	2.48488e-05	491
bin	2.492e-05	472
bin	2.49912e-05	523
bin	2.50624e-05	486
bin	2.51336e-05	453
bin	2.52048e-05	443
bin	2.5276e-05	447
bin	2.53472e-05	466
bin	2.54184e-05	500
bin	2.54896e-05	452
bin	2.55608e-05	486
bin	2.5632e-05	470
bin	2.57032e-05	456
bin	2.57744e-05	471
bin	2.58456e-05	455
bin	2.59168e-05	441
bin	2.5988e-05	439
bin	2.60592e-05	480
bin	2.61304e-05	469
bin	2.62016e-05	455
bin	2.62728e-05	500
bin	2.6344e-05	449
bin	2.64152e-05	470
bin	2.64864e-05	451
bin	2.65576e-05	444
bin	2.66288e-05	432
bin	2.67e-05	433
bin	2.67712e-05	405
bin	2.68424e-05	411
bin	2.69136e-05	394
bin	2.69848e-05	442
bin	2.7056e-05	419
bin	2.71272e-05	435
bin	2.71984e-05	417
bin	2.72696e-05	414
bin	2.73408e-05	431
bin	2.7412e-05	441
bin	2.74832e-05	429
bin	2.75544e-05	466
bin	2.76256e-05	446
bin	2.76968e-05	407
bin	2.7768e-05	471
bin	2.78392e-05	469
bin	2.79104e-05	485
bin	2.79816e-05	447
bin	2.80528e-05	439
bin	2.8124e-05	440
bin	2.81952e-05	444
bin	2.82664e-05	421
bin	2.83376e-05	403
bin	2.84088e-05	397
bin	2.848e-05	429
bin	2.85512e-05	405
bin	2.86224e-05	430
bin	2.86936e-05	462
bin	2.87648e-05	421
bin	2.8836e-05	378
bin	2.89072e-05	391
bin	2.89784e-05	379
bin	2.90496e-05	378
bin	2.91208e-05	420
bin	2.9192e-05	386
bin	2.92632e-05	369
bin	2.93344e-05	369
bin	2.94056e-05	401
bin	2.94768e-05	383
bin	2.9548e-05	435
bin	2.96192e-05	435
bin	2.96904e-05	407
bin	2.97616e-05	436
bin	2.98328e-05	402
bin	2.9904e-05	401
bin	2.99752e-05	427
bin	3.00464e-05	416
bin	3.01176e-05	388
bin	3.01888e-05	429
bin	3.026e-05	402
bin	3.03312e-05	376
bin	3.04024e-05	352
bin	3.04736e-05	359
bin	3.05448e-05	333
bin	3.0616e-05	332
bin	3.06872e-05	330
bin	3.07584e-05	360
bin	3.08296e-05	370
bin	3.09008e-05	359
bin	3.0972e-05	342
bin	3.10432e-05	334
bin	3.11144e-05	359
bin	3.11856e-05	395
bin	3.12568e-05	404
bin	3.1328e-05	383
bin	3.13992e-05	396
bin	3.14704e-05	351
bin	3.15416e-05	342
bin	3.16128e-05	355
bin	3.1684e-05	364
bin	3.17552e-05	392
bin	3.18264e-05	370
bin	3.18976e-05	397
bin	3.19688e-05	396
bin	3.204e-05	420
bin	3.21112e-05	425
bin	3.21824e-05	400
bin	3.22536e-05	422
bin	3.23248e-05	412
bin	3.2396e-05	428
bin	3.24672e-05	459
bin	3.25384e-05	438
bin	3.26096e-05	400
bin	3.26808e-05	407
bin	3.2752e-05	440
bin	3.28232e-05	414
bin	3.28944e-05	396
bin	3.29656e-05	414
bin	3.30368e-05	415
bin	3.3108e-05	403
bin	3.31792e-05	404
bin	3.32504e-05	394
bin	3.33216e-05	390
bin	3.33928e-05	379
bin	3.3464e-05	392
bin	3.35352e-05	380
bin	3.36064e-05	406
bin	3.36776e-05	346
bin	3.37488e-05	342
bin	3.382e-05	345
bin	3.38912e-05	361
bin	3.39624e-05	320
bin	3.40336e-05	308
bin	3.41048e-05	325
bin	3.4176e-05	322
bin	3.42472e-05	362
bin	3.43184e-05	352
bin	3.43896e-05	391
bin	3.44608e-05	329
bin	3.4532e-05	369
bin	3.46032e-05	377
bin	3.46744e-05	394
bin	3.47456e-05	367
bin	3.48168e-05	373
bin	3.4888e-05	365
bin	3.49592e-05	360
bin	3.50304e-05	372
bin	3.51016e-05	364
bin	3.51728e-05	383
bin	3.5244e-05	377
bin	3.53152e-05	455
bin	3.53864e-05	420
bin	3.54576e-05	364
bin	3.55288e-05	375
bin	3.56e-05	5621399
statistic Torus3d_bub.timer 	"Life Times"
field count 6291456
field mean 0.0060015298497111
field stddev 0.0032505730382534
field sum 37758.360982144
field sqrsum 293.08486010244
field min 1.250333333e-06
field max 0.013211402646028
bin	-INF	0
bin	0	0
bin	8.544e-07	105
bin	1.7088e-06	282
bin	2.5632e-06	671
bin	3.4176e-06	1247
bin	4.272e-06	1970
bin	5.1264e-06	2357
bin	5.9808e-06	2439
bin	6.8352e-06	2548
bin	7.6896e-06	2771
bin	8.544e-06	3002
bin	9.3984e-06	3103
bin	1.02528e-05	3360
bin	1.11072e-05	3490
bin	1.19616e-05	3674
bin	1.2816e-05	3746
bin	1.36704e-05	3931
bin	1.45248e-05	3869
bin	1.53792e-05	3887
bin	1.62336e-05	3916
bin	1.7088e-05	4060
bin	1.79424e-05	4072
bin	1.87968e-05	4169
bin	1.96512e-05	4292
bin	2.05056e-05	4506
bin	2.136e-05	4590
bin	2.22144e-05	4698
bin	2.30688e-05	4794
bin	2.39232e-05	5053
bin	2.47776e-05	5171
bin	2.5632e-05	5162
bin	2.64864e-05	5354
bin	2.73408e-05	5420
bin	2.81952e-05	5230
bin	2.90496e-05	5384
bin	2.9904e-05	5257
bin	3.07584e-05	5180
bin	3.16128e-05	5354
bin	3.24672e-05	5346
bin	3.33216e-05	5253
bin	3.4176e-05	5253
bin	3.50304e-05	5057
bin	3.58848e-05	5265
bin	3.67392e-05	5336
bin	3.75936e-05	5210
bin	3.8448e-05	5354
bin	3.93024e-05	5333
bin	4.01568e-05	5249
bin	4.10112e-05	5312
bin	4.18656e-05	5377
bin	4.272e-05	5278
bin	4.35744e-05	5277
bin	4.44288e-05	5225
bin	4.52832e-05	5301
bin	4.61376e-05	5423
bin	4.6992e-05	5270
bin	4.78464e-05	5281
bin	4.87008e-05	5252
bin	4.95552e-05	5255
bin	5.04096e-05	5139
bin	5.1264e-05	4983
bin	5.21184e-05	5008
bin	5.29728e-05	4875
bin	5.38272e-05	5035
bin	5.46816e-05	4907
bin	5.5536e-05	4883
bin	5.63904e-05	4965
bin	5.72448e-05	4832
bin	5.80992e-05	4879
bin	5.89536e-05	4683
bin	5.9808e-05	4644
bin	6.06624e-05	4643
bin	6.15168e-05	4551
bin	6.23712e-05	4352
bin	6.32256e-05	4027
bin	6.408e-05	3966
bin	6.49344e-05	3794
bin	6.57888e-05	3663
bin	6.66432e-05	3369
bin	6.74976e-05	3212
bin	6.8352e-05	3020
bin	6.92064e-05	2837
bin	7.00608e-05	2613
bin	7.09152e-05	2459
bin	7.17696e-05	2282
bin	7.2624e-05	2159
bin	7.34784e-05	2034
bin	7.43328e-05	1921
bin	7.51872e-05	1913
bin	7.60416e-05	1776
bin	7.6896e-05	1675
bin	7.77504e-05	1724
bin	7.86048e-05	1634
bin	7.94592e-05	1538
bin	8.03136e-05	1461
bin	8.1168e-05	1461
bin	8.20224e-05	1398
bin	8.28768e-05	1411
bin	8.37312e-05	1315
bin	8.45856e-05	1394
bin	8.544e-05	1351
bin	8.62944e-05	1325
bin	8.71488e-05	1313
bin	8.80032e-05	1251
bin	8.88576e-05	1254
bin	8.9712e-05	1202
bin	9.05664e-05	1184
bin	9.14208e-05	1154
bin	9.22752e-05	1159
bin	9.31296e-05	1136
bin	9.3984e-05	1129
bin	9.48384e-05	1124
bin	9.56928e-05	1102
bin	9.65472e-05	1094
bin	9.74016e-05	1105
bin	9.8256e-05	1079
bin	9.91104e-05	1054
bin	9.99648e-05	1080
bin	0.0001008192	1008
bin	0.0001016736	1105
bin	0.000102528	1066
bin	0.0001033824	1040
bin	0.0001042368	989
bin	0.0001050912	1022
bin	0.0001059456	1067
bin	0.0001068	1110
bin	0.0001076544	1051
bin	0.0001085088	1083
bin	0.0001093632	966
bin	0.0001102176	1043
bin	0.000111072	1061
bin	0.0001119264	1055
bin	0.0001127808	1042
bin	0.0001136352	1091
bin	0.0001144896	1073
bin	0.000115344	1096
bin	0.0001161984	1131
bin	0.0001170528	1081
bin	0.0001179072	1142
bin	0.0001187616	1081
bin	0.000119616	1079
bin	0.0001204704	1097
bin	0.0001213248	1083
bin	0.0001221792	1064
bin	0.0001230336	1084
bin	0.000123888	1095
bin	0.0001247424	1116
bin	0.0001255968	1035
bin	0.0001264512	1042
bin	0.0001273056	1021
bin	0.00012816	1025
bin	0.0001290144	965
bin	0.0001298688	974
bin	0.0001307232	956
bin	0.0001315776	927
bin	0.000132432	956
bin	0.0001332864	929
bin	0.0001341408	881
bin	0.0001349952	819
bin	0.0001358496	788
bin	0.000136704	804
bin	0.0001375584	745
bin	0.0001384128	711
bin	0.0001392672	721
bin	0.0001401216	693
bin	0.000140976	656
bin	0.0001418304	664
bin	0.0001426848	664
bin	0.0001435392	698
bin	0.0001443936	626
bin	0.000145248	654
bin	0.0001461024	621
bin	0.0001469568	606
bin	0.0001478112	621
bin	0.0001486656	618
bin	0.00014952	615
bin	0.0001503744	642
bin	0.0001512288	590
bin	0.0001520832	622
bin	0.0001529376	612
bin	0.000153792	571
bin	0.0001546464	550
bin	0.0001555008	569
bin	0.0001563552	558
bin	0.0001572096	575
bin	0.000158064	614
bin	0.0001589184	599
bin	0.0001597728	631
bin	0.0001606272	615
bin	0.0001614816	625
bin	0.000162336	692
bin	0.0001631904	656
bin	0.0001640448	661
bin	0.0001648992	666
bin	0.0001657536	625
bin	0.000166608	631
bin	0.0001674624	634
bin	0.0001683168	583
bin	0.0001691712	648
bin	0.0001700256	625
bin	0.00017088	597
bin	0.0001717344	599
bin	0.0001725888	624
bin	0.0001734432	670
bin	0.0001742976	598
bin	0.000175152	621
bin	0.0001760064	632
bin	0.0001768608	680
bin	0.0001777152	662
bin	0.0001785696	675
bin	0.000179424	663
bin	0.0001802784	669
bin	0.0001811328	742
bin	0.0001819872	700
bin	0.0001828416	718
bin	0.000183696	671
bin	0.0001845504	695
bin	0.0001854048	690
bin	0.0001862592	743
bin	0.0001871136	703
bin	0.000187968	682
bin	0.0001888224	692
bin	0.0001896768	671
bin	0.0001905312	688
bin	0.0001913856	664
bin	0.00019224	673
bin	0.0001930944	651
bin	0.0001939488	618
bin	0.0001948032	627
bin	0.0001956576	596
bin	0.000196512	560
bin	0.0001973664	579
bin	0.0001982208	549
bin	0.0001990752	575
bin	0.0001999296	541
bin	0.000200784	556
bin	0.0002016384	558
bin	0.0002024928	533
bin	0.0002033472	548
bin	0.0002042016	522
bin	0.000205056	541
bin	0.0002059104	530
bin	0.0002067648	567
bin	0.0002076192	523
bin	0.0002084736	513
bin	0.000209328	500
bin	0.0002101824	499
bin	0.0002110368	520
bin	0.0002118912	505
bin	0.0002127456	520
bin	0.0002136	535
bin	0.0002144544	544
bin	0.0002153088	555
bin	0.0002161632	526
bin	0.0002170176	554
bin	0.000217872	558
bin	0.0002187264	548
bin	0.0002195808	505
bin	0.0002204352	549
bin	0.0002212896	487
bin	0.000222144	468
bin	0.0002229984	453
bin	0.0002238528	460
bin	0.0002247072	452
bin	0.0002255616	458
bin	0.000226416	500
bin	0.0002272704	523
bin	0.0002281248	499
bin	0.0002289792	524
bin	0.0002298336	526
bin	0.000230688	545
bin	0.0002315424	486
bin	0.0002323968	532
bin	0.0002332512	520
bin	0.0002341056	563
bin	0.00023496	526
bin	0.0002358144	534
bin	0.0002366688	566
bin	0.0002375232	562
bin	0.0002383776	556
bin	0.000239232	576
bin	0.0002400864	613
bin	0.0002409408	580
bin	0.0002417952	581
bin	0.0002426496	545
bin	0.000243504	595
bin	0.0002443584	621
bin	0.0002452128	583
bin	0.0002460672	571
bin	0.0002469216	564
bin	0.000247776	562
bin	0.0002486304	566
bin	0.0002494848	546
bin	0.0002503392	563
bin	0.0002511936	584
bin	0.000252048	562
bin	0.0002529024	569
bin	0.0002537568	546
bin	0.0002546112	553
bin	0.0002554656	504
bin	0.00025632	517
bin	0.0002571744	523
bin	0.0002580288	507
bin	0.0002588832	521
bin	0.0002597376	534
bin	0.000260592	505
bin	0.0002614464	528
bin	0.0002623008	494
bin	0.0002631552	520
bin	0.0002640096	510
bin	0.000264864	489
bin	0.0002657184	520
bin	0.0002665728	509
bin	0.0002674272	480
bin	0.0002682816	472
bin	0.000269136	502
bin	0.0002699904	461
bin	0.0002708448	445
bin	0.0002716992	444
bin	0.0002725536	430
bin	0.000273408	423
bin	0.0002742624	427
bin	0.0002751168	464
bin	0.0002759712	483
bin	0.0002768256	487
bin	0.00027768	479
bin	0.0002785344	452
bin	0.0002793888	412
bin	0.0002802432	427
bin	0.0002810976	434
bin	0.000281952	447
bin	0.0002828064	440
bin	0.0002836608	440
bin	0.0002845152	465
bin	0.0002853696	481
bin	0.000286224	461
bin	0.0002870784	501
bin	0.0002879328	501
bin	0.0002887872	472
bin	0.0002896416	465
bin	0.000290496	486
bin	0.0002913504	424
bin	0.0002922048	459
bin	0.0002930592	447
bin	0.0002939136	444
bin	0.000294768	464
bin	0.0002956224	454
bin	0.0002964768	448
bin	0.0002973312	450
bin	0.0002981856	461
bin	0.00029904	475
bin	0.0002998944	437
bin	0.0003007488	463
bin	0.0003016032	443
bin	0.0003024576	460
bin	0.000303312	444
bin	0.0003041664	465
bin	0.0003050208	480
bin	0.0003058752	450
bin	0.0003067296	456
bin	0.000307584	461
bin	0.0003084384	514
bin	0.0003092928	491
bin	0.0003101472	479
bin	0.0003110016	532
bin	0.000311856	511
bin	0.0003127104	521
bin	0.0003135648	510
bin	0.0003144192	464
bin	0.0003152736	462
bin	0.000316128	501
bin	0.0003169824	490
bin	0.0003178368	472
bin	0.0003186912	495
bin	0.0003195456	446
bin	0.0003204	462
bin	0.0003212544	421
bin	0.0003221088	401
bin	0.0003229632	386
bin	0.0003238176	430
bin	0.000324672	390
bin	0.0003255264	422
bin	0.0003263808	404
bin	0.0003272352	382
bin	0.0003280896	375
bin	0.000328944	378
bin	0.0003297984	371
bin	0.0003306528	358
bin	0.0003315072	352
bin	0.0003323616	377
bin	0.000333216	381
bin	0.0003340704	379
bin	0.0003349248	371
bin	0.0003357792	393
bin	0.0003366336	375
bin	0.000337488	333
bin	0.0003383424	374
bin	0.0003391968	366
bin	0.0003400512	399
bin	0.0003409056	373
bin	0.00034176	373
bin	0.0003426144	383
bin	0.0003434688	396
bin	0.0003443232	369
bin	0.0003451776	375
bin	0.000346032	355
bin	0.0003468864	369
bin	0.0003477408	386
bin	0.0003485952	373
bin	0.0003494496	389
bin	0.000350304	387
bin	0.0003511584	391
bin	0.0003520128	395
bin	0.0003528672	408
bin	0.0003537216	408
bin	0.000354576	387
bin	0.0003554304	415
bin	0.0003562848	406
bin	0.0003571392	423
bin	0.0003579936	417
bin	0.000358848	419
bin	0.0003597024	399
bin	0.0003605568	390
bin	0.0003614112	406
bin	0.0003622656	413
bin	0.00036312	428
bin	0.0003639744	424
bin	0.0003648288	405
bin	0.0003656832	420
bin	0.0003665376	417
bin	0.000367392	426
bin	0.0003682464	427
bin	0.0003691008	411
bin	0.0003699552	392
bin	0.0003708096	390
bin	0.000371664	384
bin	0.0003725184	396
bin	0.0003733728	393
bin	0.0003742272	398
bin	0.0003750816	416
bin	0.000375936	374
bin	0.0003767904	404
bin	0.0003776448	368
bin	0.0003784992	364
bin	0.0003793536	354
bin	0.000380208	375
bin	0.0003810624	364
bin	0.0003819168	376
bin	0.0003827712	381
bin	0.0003836256	324
bin	0.00038448	356
bin	0.0003853344	342
bin	0.0003861888	344
bin	0.0003870432	322
bin	0.0003878976	327
bin	0.000388752	343
bin	0.0003896064	321
bin	0.0003904608	335
bin	0.0003913152	300
bin	0.0003921696	338
bin	0.000393024	296
bin	0.0003938784	311
bin	0.0003947328	311
bin	0.0003955872	321
bin	0.0003964416	326
bin	0.000397296	326
bin	0.0003981504	317
bin	0.0003990048	306
bin	0.0003998592	322
bin	0.0004007136	301
bin	0.000401568	295
bin	0.0004024224	301
bin	0.0004032768	318
bin	0.0004041312	300
bin	0.0004049856	300
bin	0.00040584	321
bin	0.0004066944	341
bin	0.0004075488	338
bin	0.0004084032	346
bin	0.0004092576	310
bin	0.000410112	327
bin	0.0004109664	338
bin	0.0004118208	321
bin	0.0004126752	357
bin	0.0004135296	371
bin	0.000414384	324
bin	0.0004152384	321
bin	0.0004160928	335
bin	0.0004169472	345
bin	0.0004178016	347
bin	0.000418656	339
bin	0.0004195104	349
bin	0.0004203648	337
bin	0.0004212192	348
bin	0.0004220736	319
bin	0.000422928	332
bin	0.0004237824	361
bin	0.0004246368	353
bin	0.0004254912	360
bin	0.0004263456	350
bin	0.0004272	5681107
