version 2
run Bitcomplement-4-20120709-19:14:14-24866
attr alg 0
attr buf 8
attr configname Bitcomplement
attr datetime 20120709-19:14:14
attr delta 0.4
attr experiment Bitcomplement
attr ext true
attr inifile altro.ini
attr iterationvars "$buf=8, $ext=true, $ofedge=1, $delta=0.4, $alg=0"
attr iterationvars2 "$buf=8, $ext=true, $ofedge=1, $delta=0.4, $alg=0, $repetition=0"
attr measurement "$buf=8, $ext=true, $ofedge=1, $delta=0.4, $alg=0"
attr network Torus3d_bub
attr ofedge 1
attr processid 24866
attr repetition 0
attr replication #0
attr resultdir altro-results
attr runnumber 4
attr seedset 4

scalar . 	alg 	0
scalar . 	buf 	8
scalar . 	delta 	0.4
scalar . 	ofedge 	1
scalar Torus3d_bub.timer 	#endTime 	0.004398097659797
scalar Torus3d_bub.timer 	#totalHops 	75497472
scalar Torus3d_bub.timer 	#totalPacks 	6291456
scalar Torus3d_bub.timer 	#totalDerouted 	0
scalar Torus3d_bub.timer 	#totalOutFlanked 	0
scalar Torus3d_bub.timer 	#totalCQRed 	0
scalar Torus3d_bub.timer 	#LB 	0.000786432
scalar Torus3d_bub.timer 	#ratio 	0.1788118547682
statistic Torus3d_bub.timer 	"Hop Times"
field count 6291456
field mean 6.2862827624302e-05
field stddev 0.00015817405135271
field sum 395.49871403388
field sqrsum 0.18226827215452
field min 4.18212033e-07
field max 0.001410368777777
bin	-INF	0
bin	0	0
bin	7.12e-08	0
bin	1.424e-07	0
bin	2.136e-07	0
bin	2.848e-07	0
bin	3.56e-07	29
bin	4.272e-07	5308
bin	4.984e-07	16907
bin	5.696e-07	32184
bin	6.408e-07	45180
bin	7.12e-07	54751
bin	7.832e-07	67320
bin	8.544e-07	80552
bin	9.256e-07	90912
bin	9.968e-07	97679
bin	1.068e-06	101493
bin	1.1392e-06	104172
bin	1.2104e-06	100990
bin	1.2816e-06	95949
bin	1.3528e-06	90521
bin	1.424e-06	84811
bin	1.4952e-06	79963
bin	1.5664e-06	74720
bin	1.6376e-06	69027
bin	1.7088e-06	64017
bin	1.78e-06	61689
bin	1.8512e-06	61399
bin	1.9224e-06	63956
bin	1.9936e-06	65330
bin	2.0648e-06	69015
bin	2.136e-06	70842
bin	2.2072e-06	74007
bin	2.2784e-06	74374
bin	2.3496e-06	73866
bin	2.4208e-06	72398
bin	2.492e-06	72109
bin	2.5632e-06	68735
bin	2.6344e-06	66948
bin	2.7056e-06	65844
bin	2.7768e-06	63712
bin	2.848e-06	61749
bin	2.9192e-06	60379
bin	2.9904e-06	58739
bin	3.0616e-06	57777
bin	3.1328e-06	58074
bin	3.204e-06	57781
bin	3.2752e-06	58886
bin	3.3464e-06	58158
bin	3.4176e-06	57181
bin	3.4888e-06	55874
bin	3.56e-06	54693
bin	3.6312e-06	54542
bin	3.7024e-06	53187
bin	3.7736e-06	53317
bin	3.8448e-06	53400
bin	3.916e-06	53830
bin	3.9872e-06	53307
bin	4.0584e-06	53986
bin	4.1296e-06	54332
bin	4.2008e-06	52696
bin	4.272e-06	51417
bin	4.3432e-06	49996
bin	4.4144e-06	49067
bin	4.4856e-06	47291
bin	4.5568e-06	45858
bin	4.628e-06	44267
bin	4.6992e-06	41885
bin	4.7704e-06	40596
bin	4.8416e-06	38222
bin	4.9128e-06	36718
bin	4.984e-06	34474
bin	5.0552e-06	33052
bin	5.1264e-06	32299
bin	5.1976e-06	31290
bin	5.2688e-06	29123
bin	5.34e-06	27376
bin	5.4112e-06	25924
bin	5.4824e-06	24382
bin	5.5536e-06	23410
bin	5.6248e-06	22035
bin	5.696e-06	21000
bin	5.7672e-06	19823
bin	5.8384e-06	19047
bin	5.9096e-06	18306
bin	5.9808e-06	18148
bin	6.052e-06	17419
bin	6.1232e-06	16924
bin	6.1944e-06	16426
bin	6.2656e-06	15981
bin	6.3368e-06	14988
bin	6.408e-06	14094
bin	6.4792e-06	13117
bin	6.5504e-06	12482
bin	6.6216e-06	11890
bin	6.6928e-06	11260
bin	6.764e-06	10607
bin	6.8352e-06	10025
bin	6.9064e-06	9869
bin	6.9776e-06	9525
bin	7.0488e-06	8963
bin	7.12e-06	8863
bin	7.1912e-06	8808
bin	7.2624e-06	8296
bin	7.3336e-06	8067
bin	7.4048e-06	7930
bin	7.476e-06	7061
bin	7.5472e-06	6235
bin	7.6184e-06	5545
bin	7.6896e-06	5147
bin	7.7608e-06	4266
bin	7.832e-06	3822
bin	7.9032e-06	3262
bin	7.9744e-06	2674
bin	8.0456e-06	2362
bin	8.1168e-06	2240
bin	8.188e-06	2105
bin	8.2592e-06	2071
bin	8.3304e-06	2063
bin	8.4016e-06	1996
bin	8.4728e-06	2078
bin	8.544e-06	2212
bin	8.6152e-06	2329
bin	8.6864e-06	2332
bin	8.7576e-06	2362
bin	8.8288e-06	2251
bin	8.9e-06	2237
bin	8.9712e-06	2155
bin	9.0424e-06	2157
bin	9.1136e-06	2084
bin	9.1848e-06	1954
bin	9.256e-06	1913
bin	9.3272e-06	1849
bin	9.3984e-06	1732
bin	9.4696e-06	1751
bin	9.5408e-06	1568
bin	9.612e-06	1528
bin	9.6832e-06	1398
bin	9.7544e-06	1260
bin	9.8256e-06	1305
bin	9.8968e-06	1410
bin	9.968e-06	1460
bin	1.00392e-05	1420
bin	1.01104e-05	1402
bin	1.01816e-05	1374
bin	1.02528e-05	1377
bin	1.0324e-05	1437
bin	1.03952e-05	1489
bin	1.04664e-05	1531
bin	1.05376e-05	1565
bin	1.06088e-05	1658
bin	1.068e-05	1599
bin	1.07512e-05	1618
bin	1.08224e-05	1714
bin	1.08936e-05	1609
bin	1.09648e-05	1662
bin	1.1036e-05	1732
bin	1.11072e-05	1684
bin	1.11784e-05	1828
bin	1.12496e-05	1672
bin	1.13208e-05	1726
bin	1.1392e-05	1616
bin	1.14632e-05	1654
bin	1.15344e-05	1680
bin	1.16056e-05	1696
bin	1.16768e-05	1543
bin	1.1748e-05	1473
bin	1.18192e-05	1384
bin	1.18904e-05	1299
bin	1.19616e-05	1236
bin	1.20328e-05	1207
bin	1.2104e-05	1178
bin	1.21752e-05	1043
bin	1.22464e-05	979
bin	1.23176e-05	935
bin	1.23888e-05	969
bin	1.246e-05	930
bin	1.25312e-05	1019
bin	1.26024e-05	1046
bin	1.26736e-05	1039
bin	1.27448e-05	1078
bin	1.2816e-05	1115
bin	1.28872e-05	1302
bin	1.29584e-05	1272
bin	1.30296e-05	1379
bin	1.31008e-05	1531
bin	1.3172e-05	1603
bin	1.32432e-05	1712
bin	1.33144e-05	1683
bin	1.33856e-05	1904
bin	1.34568e-05	1781
bin	1.3528e-05	1843
bin	1.35992e-05	1943
bin	1.36704e-05	2024
bin	1.37416e-05	2099
bin	1.38128e-05	2083
bin	1.3884e-05	2322
bin	1.39552e-05	2411
bin	1.40264e-05	2569
bin	1.40976e-05	2637
bin	1.41688e-05	2612
bin	1.424e-05	2591
bin	1.43112e-05	2377
bin	1.43824e-05	2193
bin	1.44536e-05	1972
bin	1.45248e-05	1792
bin	1.4596e-05	1630
bin	1.46672e-05	1368
bin	1.47384e-05	1089
bin	1.48096e-05	860
bin	1.48808e-05	758
bin	1.4952e-05	591
bin	1.50232e-05	609
bin	1.50944e-05	650
bin	1.51656e-05	647
bin	1.52368e-05	640
bin	1.5308e-05	574
bin	1.53792e-05	511
bin	1.54504e-05	455
bin	1.55216e-05	487
bin	1.55928e-05	511
bin	1.5664e-05	611
bin	1.57352e-05	556
bin	1.58064e-05	646
bin	1.58776e-05	689
bin	1.59488e-05	696
bin	1.602e-05	729
bin	1.60912e-05	759
bin	1.61624e-05	812
bin	1.62336e-05	744
bin	1.63048e-05	787
bin	1.6376e-05	688
bin	1.64472e-05	756
bin	1.65184e-05	710
bin	1.65896e-05	729
bin	1.66608e-05	726
bin	1.6732e-05	660
bin	1.68032e-05	727
bin	1.68744e-05	672
bin	1.69456e-05	683
bin	1.70168e-05	681
bin	1.7088e-05	778
bin	1.71592e-05	770
bin	1.72304e-05	729
bin	1.73016e-05	683
bin	1.73728e-05	640
bin	1.7444e-05	677
bin	1.75152e-05	665
bin	1.75864e-05	666
bin	1.76576e-05	604
bin	1.77288e-05	560
bin	1.78e-05	481
bin	1.78712e-05	508
bin	1.79424e-05	391
bin	1.80136e-05	410
bin	1.80848e-05	374
bin	1.8156e-05	340
bin	1.82272e-05	334
bin	1.82984e-05	315
bin	1.83696e-05	337
bin	1.84408e-05	297
bin	1.8512e-05	279
bin	1.85832e-05	233
bin	1.86544e-05	227
bin	1.87256e-05	195
bin	1.87968e-05	211
bin	1.8868e-05	194
bin	1.89392e-05	232
bin	1.90104e-05	201
bin	1.90816e-05	232
bin	1.91528e-05	271
bin	1.9224e-05	310
bin	1.92952e-05	430
bin	1.93664e-05	489
bin	1.94376e-05	590
bin	1.95088e-05	633
bin	1.958e-05	669
bin	1.96512e-05	812
bin	1.97224e-05	819
bin	1.97936e-05	994
bin	1.98648e-05	923
bin	1.9936e-05	1141
bin	2.00072e-05	1155
bin	2.00784e-05	1217
bin	2.01496e-05	1187
bin	2.02208e-05	1357
bin	2.0292e-05	1393
bin	2.03632e-05	1325
bin	2.04344e-05	1471
bin	2.05056e-05	1485
bin	2.05768e-05	1596
bin	2.0648e-05	1556
bin	2.07192e-05	1665
bin	2.07904e-05	1710
bin	2.08616e-05	1721
bin	2.09328e-05	1784
bin	2.1004e-05	1787
bin	2.10752e-05	1708
bin	2.11464e-05	1551
bin	2.12176e-05	1456
bin	2.12888e-05	1367
bin	2.136e-05	1326
bin	2.14312e-05	1124
bin	2.15024e-05	1015
bin	2.15736e-05	878
bin	2.16448e-05	758
bin	2.1716e-05	673
bin	2.17872e-05	573
bin	2.18584e-05	620
bin	2.19296e-05	529
bin	2.20008e-05	576
bin	2.2072e-05	490
bin	2.21432e-05	492
bin	2.22144e-05	453
bin	2.22856e-05	422
bin	2.23568e-05	439
bin	2.2428e-05	414
bin	2.24992e-05	408
bin	2.25704e-05	373
bin	2.26416e-05	405
bin	2.27128e-05	344
bin	2.2784e-05	406
bin	2.28552e-05	376
bin	2.29264e-05	360
bin	2.29976e-05	336
bin	2.30688e-05	336
bin	2.314e-05	340
bin	2.32112e-05	318
bin	2.32824e-05	302
bin	2.33536e-05	274
bin	2.34248e-05	314
bin	2.3496e-05	242
bin	2.35672e-05	264
bin	2.36384e-05	245
bin	2.37096e-05	254
bin	2.37808e-05	209
bin	2.3852e-05	238
bin	2.39232e-05	188
bin	2.39944e-05	190
bin	2.40656e-05	192
bin	2.41368e-05	163
bin	2.4208e-05	183
bin	2.42792e-05	154
bin	2.43504e-05	175
bin	2.44216e-05	172
bin	2.44928e-05	193
bin	2.4564e-05	181
bin	2.46352e-05	189
bin	2.47064e-05	194
bin	2.47776e-05	180
bin	2.48488e-05	189
bin	2.492e-05	195
bin	2.49912e-05	157
bin	2.50624e-05	143
bin	2.51336e-05	155
bin	2.52048e-05	164
bin	2.5276e-05	171
bin	2.53472e-05	163
bin	2.54184e-05	164
bin	2.54896e-05	164
bin	2.55608e-05	170
bin	2.5632e-05	165
bin	2.57032e-05	141
bin	2.57744e-05	160
bin	2.58456e-05	179
bin	2.59168e-05	191
bin	2.5988e-05	196
bin	2.60592e-05	235
bin	2.61304e-05	235
bin	2.62016e-05	287
bin	2.62728e-05	367
bin	2.6344e-05	345
bin	2.64152e-05	400
bin	2.64864e-05	423
bin	2.65576e-05	525
bin	2.66288e-05	523
bin	2.67e-05	597
bin	2.67712e-05	720
bin	2.68424e-05	774
bin	2.69136e-05	825
bin	2.69848e-05	933
bin	2.7056e-05	994
bin	2.71272e-05	968
bin	2.71984e-05	1036
bin	2.72696e-05	1116
bin	2.73408e-05	1104
bin	2.7412e-05	1132
bin	2.74832e-05	1234
bin	2.75544e-05	1277
bin	2.76256e-05	1220
bin	2.76968e-05	1293
bin	2.7768e-05	1381
bin	2.78392e-05	1307
bin	2.79104e-05	1271
bin	2.79816e-05	1198
bin	2.80528e-05	1098
bin	2.8124e-05	1062
bin	2.81952e-05	1034
bin	2.82664e-05	850
bin	2.83376e-05	718
bin	2.84088e-05	715
bin	2.848e-05	612
bin	2.85512e-05	534
bin	2.86224e-05	529
bin	2.86936e-05	490
bin	2.87648e-05	488
bin	2.8836e-05	475
bin	2.89072e-05	519
bin	2.89784e-05	412
bin	2.90496e-05	326
bin	2.91208e-05	362
bin	2.9192e-05	315
bin	2.92632e-05	285
bin	2.93344e-05	294
bin	2.94056e-05	271
bin	2.94768e-05	244
bin	2.9548e-05	262
bin	2.96192e-05	200
bin	2.96904e-05	240
bin	2.97616e-05	197
bin	2.98328e-05	216
bin	2.9904e-05	212
bin	2.99752e-05	183
bin	3.00464e-05	211
bin	3.01176e-05	195
bin	3.01888e-05	204
bin	3.026e-05	168
bin	3.03312e-05	188
bin	3.04024e-05	139
bin	3.04736e-05	153
bin	3.05448e-05	129
bin	3.0616e-05	147
bin	3.06872e-05	142
bin	3.07584e-05	135
bin	3.08296e-05	142
bin	3.09008e-05	122
bin	3.0972e-05	137
bin	3.10432e-05	136
bin	3.11144e-05	132
bin	3.11856e-05	119
bin	3.12568e-05	143
bin	3.1328e-05	147
bin	3.13992e-05	150
bin	3.14704e-05	163
bin	3.15416e-05	160
bin	3.16128e-05	184
bin	3.1684e-05	160
bin	3.17552e-05	161
bin	3.18264e-05	187
bin	3.18976e-05	181
bin	3.19688e-05	180
bin	3.204e-05	143
bin	3.21112e-05	172
bin	3.21824e-05	143
bin	3.22536e-05	175
bin	3.23248e-05	161
bin	3.2396e-05	181
bin	3.24672e-05	180
bin	3.25384e-05	184
bin	3.26096e-05	206
bin	3.26808e-05	198
bin	3.2752e-05	191
bin	3.28232e-05	197
bin	3.28944e-05	200
bin	3.29656e-05	178
bin	3.30368e-05	232
bin	3.3108e-05	253
bin	3.31792e-05	277
bin	3.32504e-05	322
bin	3.33216e-05	380
bin	3.33928e-05	410
bin	3.3464e-05	405
bin	3.35352e-05	502
bin	3.36064e-05	563
bin	3.36776e-05	598
bin	3.37488e-05	663
bin	3.382e-05	727
bin	3.38912e-05	796
bin	3.39624e-05	847
bin	3.40336e-05	807
bin	3.41048e-05	853
bin	3.4176e-05	947
bin	3.42472e-05	957
bin	3.43184e-05	954
bin	3.43896e-05	1038
bin	3.44608e-05	1157
bin	3.4532e-05	1126
bin	3.46032e-05	1167
bin	3.46744e-05	1218
bin	3.47456e-05	1125
bin	3.48168e-05	986
bin	3.4888e-05	920
bin	3.49592e-05	900
bin	3.50304e-05	824
bin	3.51016e-05	731
bin	3.51728e-05	650
bin	3.5244e-05	523
bin	3.53152e-05	453
bin	3.53864e-05	445
bin	3.54576e-05	386
bin	3.55288e-05	379
bin	3.56e-05	1366063
statistic Torus3d_bub.timer 	"Life Times"
field count 6291456
field mean 0.00036990273264941
field stddev 0.00071258433550293
field sum 2327.2267667435
field sqrsum 4.0555001326606
field min 1.463666666e-06
field max 0.004232374333333
bin	-INF	0
bin	0	0
bin	8.544e-07	16
bin	1.7088e-06	104
bin	2.5632e-06	196
bin	3.4176e-06	1224
bin	4.272e-06	4647
bin	5.1264e-06	6980
bin	5.9808e-06	12877
bin	6.8352e-06	20139
bin	7.6896e-06	27016
bin	8.544e-06	33810
bin	9.3984e-06	41148
bin	1.02528e-05	49774
bin	1.11072e-05	54652
bin	1.19616e-05	56952
bin	1.2816e-05	60039
bin	1.36704e-05	61727
bin	1.45248e-05	64714
bin	1.53792e-05	65246
bin	1.62336e-05	65320
bin	1.7088e-05	66142
bin	1.79424e-05	64199
bin	1.87968e-05	61697
bin	1.96512e-05	59128
bin	2.05056e-05	57353
bin	2.136e-05	56223
bin	2.22144e-05	55497
bin	2.30688e-05	55271
bin	2.39232e-05	56285
bin	2.47776e-05	56829
bin	2.5632e-05	58119
bin	2.64864e-05	61511
bin	2.73408e-05	61849
bin	2.81952e-05	64048
bin	2.90496e-05	66729
bin	2.9904e-05	67896
bin	3.07584e-05	69336
bin	3.16128e-05	70519
bin	3.24672e-05	71433
bin	3.33216e-05	72742
bin	3.4176e-05	74311
bin	3.50304e-05	74728
bin	3.58848e-05	77528
bin	3.67392e-05	77594
bin	3.75936e-05	77526
bin	3.8448e-05	77847
bin	3.93024e-05	77877
bin	4.01568e-05	78774
bin	4.10112e-05	79304
bin	4.18656e-05	81532
bin	4.272e-05	82308
bin	4.35744e-05	82106
bin	4.44288e-05	81743
bin	4.52832e-05	82418
bin	4.61376e-05	79649
bin	4.6992e-05	79918
bin	4.78464e-05	77226
bin	4.87008e-05	75148
bin	4.95552e-05	73708
bin	5.04096e-05	72671
bin	5.1264e-05	70436
bin	5.21184e-05	67901
bin	5.29728e-05	66584
bin	5.38272e-05	64942
bin	5.46816e-05	63208
bin	5.5536e-05	62304
bin	5.63904e-05	60402
bin	5.72448e-05	58581
bin	5.80992e-05	55311
bin	5.89536e-05	52852
bin	5.9808e-05	50150
bin	6.06624e-05	47671
bin	6.15168e-05	45489
bin	6.23712e-05	43083
bin	6.32256e-05	39561
bin	6.408e-05	37788
bin	6.49344e-05	35392
bin	6.57888e-05	33546
bin	6.66432e-05	31963
bin	6.74976e-05	28637
bin	6.8352e-05	25041
bin	6.92064e-05	21526
bin	7.00608e-05	18302
bin	7.09152e-05	15099
bin	7.17696e-05	12497
bin	7.2624e-05	10200
bin	7.34784e-05	8607
bin	7.43328e-05	7347
bin	7.51872e-05	6097
bin	7.60416e-05	5182
bin	7.6896e-05	4702
bin	7.77504e-05	3973
bin	7.86048e-05	3522
bin	7.94592e-05	2835
bin	8.03136e-05	2473
bin	8.1168e-05	2096
bin	8.20224e-05	1803
bin	8.28768e-05	1433
bin	8.37312e-05	1358
bin	8.45856e-05	1294
bin	8.544e-05	1067
bin	8.62944e-05	905
bin	8.71488e-05	834
bin	8.80032e-05	689
bin	8.88576e-05	563
bin	8.9712e-05	485
bin	9.05664e-05	500
bin	9.14208e-05	420
bin	9.22752e-05	444
bin	9.31296e-05	400
bin	9.3984e-05	387
bin	9.48384e-05	411
bin	9.56928e-05	403
bin	9.65472e-05	491
bin	9.74016e-05	459
bin	9.8256e-05	544
bin	9.91104e-05	501
bin	9.99648e-05	530
bin	0.0001008192	491
bin	0.0001016736	521
bin	0.000102528	569
bin	0.0001033824	555
bin	0.0001042368	587
bin	0.0001050912	652
bin	0.0001059456	726
bin	0.0001068	785
bin	0.0001076544	834
bin	0.0001085088	1067
bin	0.0001093632	1214
bin	0.0001102176	1517
bin	0.000111072	1885
bin	0.0001119264	2216
bin	0.0001127808	2734
bin	0.0001136352	3038
bin	0.0001144896	3363
bin	0.000115344	3764
bin	0.0001161984	3789
bin	0.0001170528	4324
bin	0.0001179072	4521
bin	0.0001187616	4673
bin	0.000119616	4946
bin	0.0001204704	5112
bin	0.0001213248	5111
bin	0.0001221792	5268
bin	0.0001230336	5433
bin	0.000123888	5519
bin	0.0001247424	5606
bin	0.0001255968	5825
bin	0.0001264512	5972
bin	0.0001273056	6088
bin	0.00012816	5893
bin	0.0001290144	5403
bin	0.0001298688	4832
bin	0.0001307232	4372
bin	0.0001315776	3819
bin	0.000132432	3027
bin	0.0001332864	2530
bin	0.0001341408	2115
bin	0.0001349952	1927
bin	0.0001358496	1806
bin	0.000136704	1586
bin	0.0001375584	1351
bin	0.0001384128	1097
bin	0.0001392672	975
bin	0.0001401216	827
bin	0.000140976	710
bin	0.0001418304	674
bin	0.0001426848	554
bin	0.0001435392	519
bin	0.0001443936	490
bin	0.000145248	457
bin	0.0001461024	348
bin	0.0001469568	347
bin	0.0001478112	333
bin	0.0001486656	268
bin	0.00014952	267
bin	0.0001503744	253
bin	0.0001512288	269
bin	0.0001520832	218
bin	0.0001529376	209
bin	0.000153792	203
bin	0.0001546464	208
bin	0.0001555008	196
bin	0.0001563552	207
bin	0.0001572096	197
bin	0.000158064	197
bin	0.0001589184	200
bin	0.0001597728	221
bin	0.0001606272	232
bin	0.0001614816	211
bin	0.000162336	222
bin	0.0001631904	232
bin	0.0001640448	191
bin	0.0001648992	202
bin	0.0001657536	230
bin	0.000166608	246
bin	0.0001674624	228
bin	0.0001683168	216
bin	0.0001691712	233
bin	0.0001700256	280
bin	0.00017088	350
bin	0.0001717344	424
bin	0.0001725888	565
bin	0.0001734432	767
bin	0.0001742976	980
bin	0.000175152	1161
bin	0.0001760064	1319
bin	0.0001768608	1517
bin	0.0001777152	1764
bin	0.0001785696	1772
bin	0.000179424	2024
bin	0.0001802784	2203
bin	0.0001811328	2216
bin	0.0001819872	2457
bin	0.0001828416	2487
bin	0.000183696	2554
bin	0.0001845504	2629
bin	0.0001854048	2787
bin	0.0001862592	2869
bin	0.0001871136	3037
bin	0.000187968	3069
bin	0.0001888224	3166
bin	0.0001896768	2994
bin	0.0001905312	2634
bin	0.0001913856	2453
bin	0.00019224	2261
bin	0.0001930944	2013
bin	0.0001939488	1650
bin	0.0001948032	1386
bin	0.0001956576	1150
bin	0.000196512	1120
bin	0.0001973664	928
bin	0.0001982208	817
bin	0.0001990752	745
bin	0.0001999296	692
bin	0.000200784	617
bin	0.0002016384	539
bin	0.0002024928	535
bin	0.0002033472	416
bin	0.0002042016	371
bin	0.000205056	357
bin	0.0002059104	328
bin	0.0002067648	280
bin	0.0002076192	266
bin	0.0002084736	299
bin	0.000209328	236
bin	0.0002101824	249
bin	0.0002110368	247
bin	0.0002118912	258
bin	0.0002127456	243
bin	0.0002136	251
bin	0.0002144544	253
bin	0.0002153088	222
bin	0.0002161632	218
bin	0.0002170176	226
bin	0.000217872	218
bin	0.0002187264	186
bin	0.0002195808	208
bin	0.0002204352	212
bin	0.0002212896	223
bin	0.000222144	222
bin	0.0002229984	210
bin	0.0002238528	236
bin	0.0002247072	206
bin	0.0002255616	200
bin	0.000226416	217
bin	0.0002272704	218
bin	0.0002281248	209
bin	0.0002289792	235
bin	0.0002298336	211
bin	0.000230688	227
bin	0.0002315424	200
bin	0.0002323968	250
bin	0.0002332512	288
bin	0.0002341056	383
bin	0.00023496	388
bin	0.0002358144	521
bin	0.0002366688	614
bin	0.0002375232	649
bin	0.0002383776	730
bin	0.000239232	846
bin	0.0002400864	945
bin	0.0002409408	1112
bin	0.0002417952	1233
bin	0.0002426496	1370
bin	0.000243504	1431
bin	0.0002443584	1485
bin	0.0002452128	1593
bin	0.0002460672	1640
bin	0.0002469216	1729
bin	0.000247776	1827
bin	0.0002486304	1837
bin	0.0002494848	1882
bin	0.0002503392	1948
bin	0.0002511936	1835
bin	0.000252048	1644
bin	0.0002529024	1556
bin	0.0002537568	1453
bin	0.0002546112	1181
bin	0.0002554656	984
bin	0.00025632	826
bin	0.0002571744	752
bin	0.0002580288	699
bin	0.0002588832	701
bin	0.0002597376	678
bin	0.000260592	607
bin	0.0002614464	531
bin	0.0002623008	489
bin	0.0002631552	440
bin	0.0002640096	394
bin	0.000264864	353
bin	0.0002657184	318
bin	0.0002665728	283
bin	0.0002674272	270
bin	0.0002682816	292
bin	0.000269136	288
bin	0.0002699904	258
bin	0.0002708448	273
bin	0.0002716992	277
bin	0.0002725536	253
bin	0.000273408	219
bin	0.0002742624	204
bin	0.0002751168	214
bin	0.0002759712	199
bin	0.0002768256	199
bin	0.00027768	185
bin	0.0002785344	203
bin	0.0002793888	185
bin	0.0002802432	187
bin	0.0002810976	198
bin	0.000281952	209
bin	0.0002828064	206
bin	0.0002836608	237
bin	0.0002845152	249
bin	0.0002853696	241
bin	0.000286224	240
bin	0.0002870784	241
bin	0.0002879328	230
bin	0.0002887872	212
bin	0.0002896416	212
bin	0.000290496	209
bin	0.0002913504	233
bin	0.0002922048	240
bin	0.0002930592	230
bin	0.0002939136	248
bin	0.000294768	222
bin	0.0002956224	250
bin	0.0002964768	225
bin	0.0002973312	303
bin	0.0002981856	379
bin	0.00029904	410
bin	0.0002998944	525
bin	0.0003007488	552
bin	0.0003016032	724
bin	0.0003024576	828
bin	0.000303312	933
bin	0.0003041664	1006
bin	0.0003050208	1137
bin	0.0003058752	1108
bin	0.0003067296	1235
bin	0.000307584	1331
bin	0.0003084384	1357
bin	0.0003092928	1432
bin	0.0003101472	1589
bin	0.0003110016	1601
bin	0.000311856	1694
bin	0.0003127104	1562
bin	0.0003135648	1332
bin	0.0003144192	1300
bin	0.0003152736	1163
bin	0.000316128	986
bin	0.0003169824	812
bin	0.0003178368	708
bin	0.0003186912	658
bin	0.0003195456	621
bin	0.0003204	540
bin	0.0003212544	506
bin	0.0003221088	507
bin	0.0003229632	507
bin	0.0003238176	483
bin	0.000324672	434
bin	0.0003255264	362
bin	0.0003263808	363
bin	0.0003272352	343
bin	0.0003280896	325
bin	0.000328944	311
bin	0.0003297984	333
bin	0.0003306528	286
bin	0.0003315072	271
bin	0.0003323616	282
bin	0.000333216	278
bin	0.0003340704	264
bin	0.0003349248	268
bin	0.0003357792	277
bin	0.0003366336	239
bin	0.000337488	227
bin	0.0003383424	237
bin	0.0003391968	275
bin	0.0003400512	263
bin	0.0003409056	244
bin	0.00034176	258
bin	0.0003426144	257
bin	0.0003434688	240
bin	0.0003443232	216
bin	0.0003451776	222
bin	0.000346032	203
bin	0.0003468864	249
bin	0.0003477408	217
bin	0.0003485952	250
bin	0.0003494496	249
bin	0.000350304	226
bin	0.0003511584	216
bin	0.0003520128	200
bin	0.0003528672	243
bin	0.0003537216	237
bin	0.000354576	253
bin	0.0003554304	251
bin	0.0003562848	277
bin	0.0003571392	310
bin	0.0003579936	342
bin	0.000358848	403
bin	0.0003597024	410
bin	0.0003605568	465
bin	0.0003614112	601
bin	0.0003622656	622
bin	0.00036312	773
bin	0.0003639744	866
bin	0.0003648288	959
bin	0.0003656832	1044
bin	0.0003665376	1092
bin	0.000367392	1193
bin	0.0003682464	1334
bin	0.0003691008	1316
bin	0.0003699552	1431
bin	0.0003708096	1598
bin	0.000371664	1636
bin	0.0003725184	1678
bin	0.0003733728	1625
bin	0.0003742272	1512
bin	0.0003750816	1340
bin	0.000375936	1261
bin	0.0003767904	1131
bin	0.0003776448	944
bin	0.0003784992	732
bin	0.0003793536	650
bin	0.000380208	561
bin	0.0003810624	597
bin	0.0003819168	518
bin	0.0003827712	507
bin	0.0003836256	529
bin	0.00038448	514
bin	0.0003853344	475
bin	0.0003861888	449
bin	0.0003870432	424
bin	0.0003878976	408
bin	0.000388752	411
bin	0.0003896064	344
bin	0.0003904608	353
bin	0.0003913152	312
bin	0.0003921696	307
bin	0.000393024	291
bin	0.0003938784	278
bin	0.0003947328	279
bin	0.0003955872	261
bin	0.0003964416	277
bin	0.000397296	261
bin	0.0003981504	276
bin	0.0003990048	248
bin	0.0003998592	270
bin	0.0004007136	262
bin	0.000401568	256
bin	0.0004024224	272
bin	0.0004032768	265
bin	0.0004041312	291
bin	0.0004049856	280
bin	0.00040584	313
bin	0.0004066944	304
bin	0.0004075488	318
bin	0.0004084032	311
bin	0.0004092576	310
bin	0.000410112	328
bin	0.0004109664	321
bin	0.0004118208	338
bin	0.0004126752	355
bin	0.0004135296	372
bin	0.000414384	335
bin	0.0004152384	362
bin	0.0004160928	341
bin	0.0004169472	363
bin	0.0004178016	336
bin	0.000418656	353
bin	0.0004195104	399
bin	0.0004203648	390
bin	0.0004212192	458
bin	0.0004220736	509
bin	0.000422928	580
bin	0.0004237824	670
bin	0.0004246368	796
bin	0.0004254912	839
bin	0.0004263456	950
bin	0.0004272	1305957
