version 2
run Bitcomplement-32-20120709-20:58:00-24914
attr alg 0
attr buf 8
attr configname Bitcomplement
attr datetime 20120709-20:58:00
attr delta 0.6
attr experiment Bitcomplement
attr ext false
attr inifile altro.ini
attr iterationvars "$buf=8, $ext=false, $ofedge=1, $delta=0.6, $alg=0"
attr iterationvars2 "$buf=8, $ext=false, $ofedge=1, $delta=0.6, $alg=0, $repetition=0"
attr measurement "$buf=8, $ext=false, $ofedge=1, $delta=0.6, $alg=0"
attr network Torus3d_bub
attr ofedge 1
attr processid 24914
attr repetition 0
attr replication #0
attr resultdir altro-results
attr runnumber 32
attr seedset 32

scalar . 	alg 	0
scalar . 	buf 	8
scalar . 	delta 	0.6
scalar . 	ofedge 	1
scalar Torus3d_bub.timer 	#endTime 	0.005067708325417
scalar Torus3d_bub.timer 	#totalHops 	75497472
scalar Torus3d_bub.timer 	#totalPacks 	6291456
scalar Torus3d_bub.timer 	#totalDerouted 	0
scalar Torus3d_bub.timer 	#totalOutFlanked 	0
scalar Torus3d_bub.timer 	#totalCQRed 	0
scalar Torus3d_bub.timer 	#LB 	0.000786432
scalar Torus3d_bub.timer 	#ratio 	0.15518493754971
statistic Torus3d_bub.timer 	"Hop Times"
field count 6291456
field mean 0.00013843704090746
field stddev 0.00020505023030196
field sum 870.97055163947
field sqrsum 0.38510256702598
field min 4.16317456e-07
field max 0.001634173666666
bin	-INF	0
bin	0	0
bin	7.12e-08	0
bin	1.424e-07	0
bin	2.136e-07	0
bin	2.848e-07	0
bin	3.56e-07	27
bin	4.272e-07	1171
bin	4.984e-07	5825
bin	5.696e-07	13400
bin	6.408e-07	21278
bin	7.12e-07	31706
bin	7.832e-07	39998
bin	8.544e-07	47114
bin	9.256e-07	52243
bin	9.968e-07	53545
bin	1.068e-06	53244
bin	1.1392e-06	52199
bin	1.2104e-06	51024
bin	1.2816e-06	48716
bin	1.3528e-06	46858
bin	1.424e-06	46952
bin	1.4952e-06	48381
bin	1.5664e-06	49482
bin	1.6376e-06	50079
bin	1.7088e-06	49322
bin	1.78e-06	49351
bin	1.8512e-06	49929
bin	1.9224e-06	51165
bin	1.9936e-06	51774
bin	2.0648e-06	53286
bin	2.136e-06	54790
bin	2.2072e-06	56423
bin	2.2784e-06	56519
bin	2.3496e-06	56241
bin	2.4208e-06	55464
bin	2.492e-06	53522
bin	2.5632e-06	51511
bin	2.6344e-06	49082
bin	2.7056e-06	46437
bin	2.7768e-06	43979
bin	2.848e-06	41853
bin	2.9192e-06	39677
bin	2.9904e-06	36082
bin	3.0616e-06	33458
bin	3.1328e-06	31195
bin	3.204e-06	28758
bin	3.2752e-06	25504
bin	3.3464e-06	24304
bin	3.4176e-06	21482
bin	3.4888e-06	20317
bin	3.56e-06	18382
bin	3.6312e-06	17042
bin	3.7024e-06	15192
bin	3.7736e-06	13690
bin	3.8448e-06	11743
bin	3.916e-06	10062
bin	3.9872e-06	8172
bin	4.0584e-06	7072
bin	4.1296e-06	6281
bin	4.2008e-06	5890
bin	4.272e-06	5576
bin	4.3432e-06	5209
bin	4.4144e-06	5041
bin	4.4856e-06	4660
bin	4.5568e-06	4374
bin	4.628e-06	4340
bin	4.6992e-06	4475
bin	4.7704e-06	4118
bin	4.8416e-06	4117
bin	4.9128e-06	3959
bin	4.984e-06	3684
bin	5.0552e-06	3722
bin	5.1264e-06	3897
bin	5.1976e-06	3796
bin	5.2688e-06	3789
bin	5.34e-06	3708
bin	5.4112e-06	3819
bin	5.4824e-06	3924
bin	5.5536e-06	3787
bin	5.6248e-06	3853
bin	5.696e-06	3625
bin	5.7672e-06	3588
bin	5.8384e-06	3629
bin	5.9096e-06	3879
bin	5.9808e-06	4262
bin	6.052e-06	4475
bin	6.1232e-06	4824
bin	6.1944e-06	4962
bin	6.2656e-06	5380
bin	6.3368e-06	5474
bin	6.408e-06	5573
bin	6.4792e-06	5446
bin	6.5504e-06	5695
bin	6.6216e-06	5732
bin	6.6928e-06	5683
bin	6.764e-06	5606
bin	6.8352e-06	5455
bin	6.9064e-06	4912
bin	6.9776e-06	4463
bin	7.0488e-06	4094
bin	7.12e-06	3267
bin	7.1912e-06	2803
bin	7.2624e-06	2568
bin	7.3336e-06	2306
bin	7.4048e-06	2209
bin	7.476e-06	2152
bin	7.5472e-06	1933
bin	7.6184e-06	1776
bin	7.6896e-06	1816
bin	7.7608e-06	1811
bin	7.832e-06	1971
bin	7.9032e-06	1919
bin	7.9744e-06	2020
bin	8.0456e-06	1946
bin	8.1168e-06	1891
bin	8.188e-06	1902
bin	8.2592e-06	1929
bin	8.3304e-06	2010
bin	8.4016e-06	2023
bin	8.4728e-06	2054
bin	8.544e-06	2094
bin	8.6152e-06	2122
bin	8.6864e-06	2054
bin	8.7576e-06	2137
bin	8.8288e-06	2206
bin	8.9e-06	2273
bin	8.9712e-06	2317
bin	9.0424e-06	2419
bin	9.1136e-06	2537
bin	9.1848e-06	2712
bin	9.256e-06	2972
bin	9.3272e-06	2860
bin	9.3984e-06	3033
bin	9.4696e-06	3097
bin	9.5408e-06	3263
bin	9.612e-06	3337
bin	9.6832e-06	3718
bin	9.7544e-06	3781
bin	9.8256e-06	4000
bin	9.8968e-06	4021
bin	9.968e-06	3946
bin	1.00392e-05	3658
bin	1.01104e-05	3340
bin	1.01816e-05	3007
bin	1.02528e-05	2389
bin	1.0324e-05	2071
bin	1.03952e-05	1801
bin	1.04664e-05	1580
bin	1.05376e-05	1490
bin	1.06088e-05	1507
bin	1.068e-05	1351
bin	1.07512e-05	1296
bin	1.08224e-05	1270
bin	1.08936e-05	1260
bin	1.09648e-05	1346
bin	1.1036e-05	1463
bin	1.11072e-05	1558
bin	1.11784e-05	1530
bin	1.12496e-05	1678
bin	1.13208e-05	1687
bin	1.1392e-05	1711
bin	1.14632e-05	1763
bin	1.15344e-05	1805
bin	1.16056e-05	1937
bin	1.16768e-05	1869
bin	1.1748e-05	1980
bin	1.18192e-05	1874
bin	1.18904e-05	1792
bin	1.19616e-05	1596
bin	1.20328e-05	1479
bin	1.2104e-05	1253
bin	1.21752e-05	1271
bin	1.22464e-05	1359
bin	1.23176e-05	1394
bin	1.23888e-05	1674
bin	1.246e-05	1835
bin	1.25312e-05	2152
bin	1.26024e-05	2238
bin	1.26736e-05	2800
bin	1.27448e-05	2742
bin	1.2816e-05	3179
bin	1.28872e-05	3082
bin	1.29584e-05	3425
bin	1.30296e-05	3364
bin	1.31008e-05	3592
bin	1.3172e-05	3262
bin	1.32432e-05	3024
bin	1.33144e-05	2658
bin	1.33856e-05	2123
bin	1.34568e-05	1817
bin	1.3528e-05	1725
bin	1.35992e-05	1524
bin	1.36704e-05	1523
bin	1.37416e-05	1596
bin	1.38128e-05	1564
bin	1.3884e-05	1453
bin	1.39552e-05	1417
bin	1.40264e-05	1392
bin	1.40976e-05	1462
bin	1.41688e-05	1492
bin	1.424e-05	1503
bin	1.43112e-05	1486
bin	1.43824e-05	1556
bin	1.44536e-05	1599
bin	1.45248e-05	1526
bin	1.4596e-05	1408
bin	1.46672e-05	1341
bin	1.47384e-05	1198
bin	1.48096e-05	976
bin	1.48808e-05	954
bin	1.4952e-05	789
bin	1.50232e-05	841
bin	1.50944e-05	728
bin	1.51656e-05	775
bin	1.52368e-05	840
bin	1.5308e-05	841
bin	1.53792e-05	1012
bin	1.54504e-05	1085
bin	1.55216e-05	1319
bin	1.55928e-05	1514
bin	1.5664e-05	1789
bin	1.57352e-05	1906
bin	1.58064e-05	2236
bin	1.58776e-05	2148
bin	1.59488e-05	2461
bin	1.602e-05	2344
bin	1.60912e-05	2622
bin	1.61624e-05	2458
bin	1.62336e-05	2607
bin	1.63048e-05	2517
bin	1.6376e-05	2427
bin	1.64472e-05	2285
bin	1.65184e-05	1917
bin	1.65896e-05	1767
bin	1.66608e-05	1572
bin	1.6732e-05	1461
bin	1.68032e-05	1373
bin	1.68744e-05	1289
bin	1.69456e-05	1271
bin	1.70168e-05	1198
bin	1.7088e-05	1157
bin	1.71592e-05	1108
bin	1.72304e-05	1140
bin	1.73016e-05	1094
bin	1.73728e-05	1010
bin	1.7444e-05	954
bin	1.75152e-05	879
bin	1.75864e-05	785
bin	1.76576e-05	753
bin	1.77288e-05	708
bin	1.78e-05	659
bin	1.78712e-05	582
bin	1.79424e-05	576
bin	1.80136e-05	591
bin	1.80848e-05	556
bin	1.8156e-05	564
bin	1.82272e-05	554
bin	1.82984e-05	518
bin	1.83696e-05	528
bin	1.84408e-05	532
bin	1.8512e-05	607
bin	1.85832e-05	638
bin	1.86544e-05	819
bin	1.87256e-05	1004
bin	1.87968e-05	1287
bin	1.8868e-05	1351
bin	1.89392e-05	1623
bin	1.90104e-05	1774
bin	1.90816e-05	1980
bin	1.91528e-05	1967
bin	1.9224e-05	2369
bin	1.92952e-05	2234
bin	1.93664e-05	2467
bin	1.94376e-05	2278
bin	1.95088e-05	2215
bin	1.958e-05	2050
bin	1.96512e-05	1747
bin	1.97224e-05	1434
bin	1.97936e-05	1331
bin	1.98648e-05	1241
bin	1.9936e-05	1135
bin	2.00072e-05	1035
bin	2.00784e-05	942
bin	2.01496e-05	788
bin	2.02208e-05	750
bin	2.0292e-05	653
bin	2.03632e-05	631
bin	2.04344e-05	582
bin	2.05056e-05	509
bin	2.05768e-05	548
bin	2.0648e-05	556
bin	2.07192e-05	580
bin	2.07904e-05	507
bin	2.08616e-05	597
bin	2.09328e-05	508
bin	2.1004e-05	647
bin	2.10752e-05	688
bin	2.11464e-05	709
bin	2.12176e-05	737
bin	2.12888e-05	702
bin	2.136e-05	707
bin	2.14312e-05	733
bin	2.15024e-05	714
bin	2.15736e-05	674
bin	2.16448e-05	744
bin	2.1716e-05	771
bin	2.17872e-05	860
bin	2.18584e-05	1018
bin	2.19296e-05	1068
bin	2.20008e-05	1182
bin	2.2072e-05	1269
bin	2.21432e-05	1350
bin	2.22144e-05	1438
bin	2.22856e-05	1480
bin	2.23568e-05	1646
bin	2.2428e-05	1620
bin	2.24992e-05	1876
bin	2.25704e-05	1687
bin	2.26416e-05	1666
bin	2.27128e-05	1648
bin	2.2784e-05	1454
bin	2.28552e-05	1195
bin	2.29264e-05	1122
bin	2.29976e-05	1058
bin	2.30688e-05	965
bin	2.314e-05	873
bin	2.32112e-05	891
bin	2.32824e-05	898
bin	2.33536e-05	830
bin	2.34248e-05	774
bin	2.3496e-05	748
bin	2.35672e-05	717
bin	2.36384e-05	708
bin	2.37096e-05	681
bin	2.37808e-05	622
bin	2.3852e-05	619
bin	2.39232e-05	565
bin	2.39944e-05	627
bin	2.40656e-05	541
bin	2.41368e-05	515
bin	2.4208e-05	512
bin	2.42792e-05	534
bin	2.43504e-05	488
bin	2.44216e-05	491
bin	2.44928e-05	495
bin	2.4564e-05	434
bin	2.46352e-05	522
bin	2.47064e-05	510
bin	2.47776e-05	503
bin	2.48488e-05	515
bin	2.492e-05	661
bin	2.49912e-05	785
bin	2.50624e-05	921
bin	2.51336e-05	1022
bin	2.52048e-05	1078
bin	2.5276e-05	1196
bin	2.53472e-05	1287
bin	2.54184e-05	1353
bin	2.54896e-05	1556
bin	2.55608e-05	1534
bin	2.5632e-05	1657
bin	2.57032e-05	1485
bin	2.57744e-05	1412
bin	2.58456e-05	1197
bin	2.59168e-05	1202
bin	2.5988e-05	990
bin	2.60592e-05	936
bin	2.61304e-05	845
bin	2.62016e-05	805
bin	2.62728e-05	711
bin	2.6344e-05	652
bin	2.64152e-05	572
bin	2.64864e-05	540
bin	2.65576e-05	578
bin	2.66288e-05	598
bin	2.67e-05	599
bin	2.67712e-05	568
bin	2.68424e-05	619
bin	2.69136e-05	583
bin	2.69848e-05	593
bin	2.7056e-05	557
bin	2.71272e-05	569
bin	2.71984e-05	527
bin	2.72696e-05	563
bin	2.73408e-05	509
bin	2.7412e-05	448
bin	2.74832e-05	486
bin	2.75544e-05	441
bin	2.76256e-05	447
bin	2.76968e-05	386
bin	2.7768e-05	437
bin	2.78392e-05	374
bin	2.79104e-05	441
bin	2.79816e-05	432
bin	2.80528e-05	509
bin	2.8124e-05	570
bin	2.81952e-05	683
bin	2.82664e-05	744
bin	2.83376e-05	823
bin	2.84088e-05	910
bin	2.848e-05	877
bin	2.85512e-05	943
bin	2.86224e-05	1054
bin	2.86936e-05	1096
bin	2.87648e-05	1203
bin	2.8836e-05	1126
bin	2.89072e-05	1183
bin	2.89784e-05	1047
bin	2.90496e-05	1073
bin	2.91208e-05	923
bin	2.9192e-05	804
bin	2.92632e-05	733
bin	2.93344e-05	709
bin	2.94056e-05	616
bin	2.94768e-05	580
bin	2.9548e-05	455
bin	2.96192e-05	392
bin	2.96904e-05	416
bin	2.97616e-05	375
bin	2.98328e-05	412
bin	2.9904e-05	399
bin	2.99752e-05	436
bin	3.00464e-05	388
bin	3.01176e-05	453
bin	3.01888e-05	407
bin	3.026e-05	425
bin	3.03312e-05	468
bin	3.04024e-05	523
bin	3.04736e-05	537
bin	3.05448e-05	564
bin	3.0616e-05	605
bin	3.06872e-05	523
bin	3.07584e-05	590
bin	3.08296e-05	557
bin	3.09008e-05	570
bin	3.0972e-05	571
bin	3.10432e-05	617
bin	3.11144e-05	609
bin	3.11856e-05	589
bin	3.12568e-05	606
bin	3.1328e-05	596
bin	3.13992e-05	599
bin	3.14704e-05	536
bin	3.15416e-05	602
bin	3.16128e-05	606
bin	3.1684e-05	639
bin	3.17552e-05	675
bin	3.18264e-05	678
bin	3.18976e-05	815
bin	3.19688e-05	738
bin	3.204e-05	852
bin	3.21112e-05	793
bin	3.21824e-05	890
bin	3.22536e-05	803
bin	3.23248e-05	781
bin	3.2396e-05	730
bin	3.24672e-05	738
bin	3.25384e-05	725
bin	3.26096e-05	698
bin	3.26808e-05	660
bin	3.2752e-05	620
bin	3.28232e-05	610
bin	3.28944e-05	538
bin	3.29656e-05	564
bin	3.30368e-05	491
bin	3.3108e-05	500
bin	3.31792e-05	491
bin	3.32504e-05	458
bin	3.33216e-05	428
bin	3.33928e-05	420
bin	3.3464e-05	434
bin	3.35352e-05	425
bin	3.36064e-05	491
bin	3.36776e-05	481
bin	3.37488e-05	558
bin	3.382e-05	521
bin	3.38912e-05	595
bin	3.39624e-05	565
bin	3.40336e-05	555
bin	3.41048e-05	584
bin	3.4176e-05	587
bin	3.42472e-05	627
bin	3.43184e-05	605
bin	3.43896e-05	683
bin	3.44608e-05	708
bin	3.4532e-05	774
bin	3.46032e-05	730
bin	3.46744e-05	744
bin	3.47456e-05	740
bin	3.48168e-05	775
bin	3.4888e-05	795
bin	3.49592e-05	813
bin	3.50304e-05	884
bin	3.51016e-05	850
bin	3.51728e-05	862
bin	3.5244e-05	771
bin	3.53152e-05	775
bin	3.53864e-05	717
bin	3.54576e-05	622
bin	3.55288e-05	623
bin	3.56e-05	3657995
statistic Torus3d_bub.timer 	"Life Times"
field count 6291456
field mean 0.0010367140056782
field stddev 0.0010132115937917
field sum 6522.440551308
field sqrsum 13.22069891601
field min 1.250333333e-06
field max 0.004904617
bin	-INF	0
bin	0	0
bin	8.544e-07	64
bin	1.7088e-06	80
bin	2.5632e-06	236
bin	3.4176e-06	416
bin	4.272e-06	820
bin	5.1264e-06	1015
bin	5.9808e-06	1875
bin	6.8352e-06	3100
bin	7.6896e-06	5350
bin	8.544e-06	8690
bin	9.3984e-06	12484
bin	1.02528e-05	17820
bin	1.11072e-05	22784
bin	1.19616e-05	26120
bin	1.2816e-05	28588
bin	1.36704e-05	29967
bin	1.45248e-05	30542
bin	1.53792e-05	29953
bin	1.62336e-05	29289
bin	1.7088e-05	29749
bin	1.79424e-05	31055
bin	1.87968e-05	31246
bin	1.96512e-05	31455
bin	2.05056e-05	31231
bin	2.136e-05	31572
bin	2.22144e-05	32549
bin	2.30688e-05	33737
bin	2.39232e-05	34540
bin	2.47776e-05	36974
bin	2.5632e-05	38387
bin	2.64864e-05	40318
bin	2.73408e-05	42090
bin	2.81952e-05	43429
bin	2.90496e-05	44765
bin	2.9904e-05	45190
bin	3.07584e-05	46184
bin	3.16128e-05	46924
bin	3.24672e-05	47416
bin	3.33216e-05	48400
bin	3.4176e-05	48216
bin	3.50304e-05	48461
bin	3.58848e-05	48910
bin	3.67392e-05	48983
bin	3.75936e-05	48581
bin	3.8448e-05	48149
bin	3.93024e-05	47707
bin	4.01568e-05	46880
bin	4.10112e-05	45836
bin	4.18656e-05	44600
bin	4.272e-05	43971
bin	4.35744e-05	43264
bin	4.44288e-05	40789
bin	4.52832e-05	39593
bin	4.61376e-05	37521
bin	4.6992e-05	36061
bin	4.78464e-05	32976
bin	4.87008e-05	30191
bin	4.95552e-05	27824
bin	5.04096e-05	24476
bin	5.1264e-05	21385
bin	5.21184e-05	18457
bin	5.29728e-05	16034
bin	5.38272e-05	13991
bin	5.46816e-05	12037
bin	5.5536e-05	10183
bin	5.63904e-05	9153
bin	5.72448e-05	7908
bin	5.80992e-05	6501
bin	5.89536e-05	5420
bin	5.9808e-05	4554
bin	6.06624e-05	3942
bin	6.15168e-05	3429
bin	6.23712e-05	3020
bin	6.32256e-05	2666
bin	6.408e-05	2199
bin	6.49344e-05	1842
bin	6.57888e-05	1624
bin	6.66432e-05	1438
bin	6.74976e-05	1349
bin	6.8352e-05	1117
bin	6.92064e-05	1054
bin	7.00608e-05	960
bin	7.09152e-05	1054
bin	7.17696e-05	1007
bin	7.2624e-05	922
bin	7.34784e-05	1042
bin	7.43328e-05	1141
bin	7.51872e-05	1363
bin	7.60416e-05	1685
bin	7.6896e-05	2055
bin	7.77504e-05	2725
bin	7.86048e-05	3205
bin	7.94592e-05	3805
bin	8.03136e-05	4529
bin	8.1168e-05	5288
bin	8.20224e-05	6040
bin	8.28768e-05	6462
bin	8.37312e-05	6828
bin	8.45856e-05	7442
bin	8.544e-05	7588
bin	8.62944e-05	7795
bin	8.71488e-05	8115
bin	8.80032e-05	8348
bin	8.88576e-05	8219
bin	8.9712e-05	7638
bin	9.05664e-05	7241
bin	9.14208e-05	6735
bin	9.22752e-05	5760
bin	9.31296e-05	5102
bin	9.3984e-05	4699
bin	9.48384e-05	4174
bin	9.56928e-05	3716
bin	9.65472e-05	3387
bin	9.74016e-05	3020
bin	9.8256e-05	2777
bin	9.91104e-05	2333
bin	9.99648e-05	2030
bin	0.0001008192	1713
bin	0.0001016736	1584
bin	0.000102528	1398
bin	0.0001033824	1325
bin	0.0001042368	1171
bin	0.0001050912	993
bin	0.0001059456	951
bin	0.0001068	832
bin	0.0001076544	820
bin	0.0001085088	736
bin	0.0001093632	687
bin	0.0001102176	679
bin	0.000111072	618
bin	0.0001119264	551
bin	0.0001127808	552
bin	0.0001136352	567
bin	0.0001144896	569
bin	0.000115344	670
bin	0.0001161984	723
bin	0.0001170528	868
bin	0.0001179072	1082
bin	0.0001187616	1398
bin	0.000119616	1761
bin	0.0001204704	2059
bin	0.0001213248	2301
bin	0.0001221792	2639
bin	0.0001230336	3001
bin	0.000123888	3232
bin	0.0001247424	3587
bin	0.0001255968	4124
bin	0.0001264512	4395
bin	0.0001273056	4517
bin	0.00012816	4897
bin	0.0001290144	5171
bin	0.0001298688	4834
bin	0.0001307232	4565
bin	0.0001315776	4408
bin	0.000132432	4045
bin	0.0001332864	3567
bin	0.0001341408	3162
bin	0.0001349952	3013
bin	0.0001358496	2688
bin	0.000136704	2329
bin	0.0001375584	2288
bin	0.0001384128	2155
bin	0.0001392672	1823
bin	0.0001401216	1519
bin	0.000140976	1365
bin	0.0001418304	1258
bin	0.0001426848	1049
bin	0.0001435392	1046
bin	0.0001443936	1050
bin	0.000145248	971
bin	0.0001461024	935
bin	0.0001469568	816
bin	0.0001478112	798
bin	0.0001486656	767
bin	0.00014952	694
bin	0.0001503744	717
bin	0.0001512288	754
bin	0.0001520832	691
bin	0.0001529376	636
bin	0.000153792	683
bin	0.0001546464	672
bin	0.0001555008	650
bin	0.0001563552	718
bin	0.0001572096	779
bin	0.000158064	819
bin	0.0001589184	948
bin	0.0001597728	1085
bin	0.0001606272	1411
bin	0.0001614816	1536
bin	0.000162336	1711
bin	0.0001631904	2150
bin	0.0001640448	2449
bin	0.0001648992	2679
bin	0.0001657536	2956
bin	0.000166608	3375
bin	0.0001674624	3473
bin	0.0001683168	3474
bin	0.0001691712	3810
bin	0.0001700256	4205
bin	0.00017088	3964
bin	0.0001717344	3658
bin	0.0001725888	3671
bin	0.0001734432	3278
bin	0.0001742976	2773
bin	0.000175152	2387
bin	0.0001760064	2388
bin	0.0001768608	2105
bin	0.0001777152	1998
bin	0.0001785696	1922
bin	0.000179424	1719
bin	0.0001802784	1505
bin	0.0001811328	1276
bin	0.0001819872	1127
bin	0.0001828416	1050
bin	0.000183696	940
bin	0.0001845504	921
bin	0.0001854048	908
bin	0.0001862592	781
bin	0.0001871136	793
bin	0.000187968	812
bin	0.0001888224	753
bin	0.0001896768	669
bin	0.0001905312	692
bin	0.0001913856	696
bin	0.00019224	674
bin	0.0001930944	654
bin	0.0001939488	658
bin	0.0001948032	651
bin	0.0001956576	639
bin	0.000196512	598
bin	0.0001973664	661
bin	0.0001982208	623
bin	0.0001990752	665
bin	0.0001999296	685
bin	0.000200784	853
bin	0.0002016384	1068
bin	0.0002024928	1259
bin	0.0002033472	1485
bin	0.0002042016	1779
bin	0.000205056	2038
bin	0.0002059104	2154
bin	0.0002067648	2302
bin	0.0002076192	2582
bin	0.0002084736	2666
bin	0.000209328	2650
bin	0.0002101824	2817
bin	0.0002110368	2963
bin	0.0002118912	2900
bin	0.0002127456	2734
bin	0.0002136	2629
bin	0.0002144544	2352
bin	0.0002153088	2094
bin	0.0002161632	1955
bin	0.0002170176	1865
bin	0.000217872	1768
bin	0.0002187264	1535
bin	0.0002195808	1515
bin	0.0002204352	1394
bin	0.0002212896	1213
bin	0.000222144	1044
bin	0.0002229984	867
bin	0.0002238528	766
bin	0.0002247072	749
bin	0.0002255616	764
bin	0.000226416	686
bin	0.0002272704	704
bin	0.0002281248	676
bin	0.0002289792	662
bin	0.0002298336	621
bin	0.000230688	608
bin	0.0002315424	604
bin	0.0002323968	551
bin	0.0002332512	531
bin	0.0002341056	503
bin	0.00023496	554
bin	0.0002358144	542
bin	0.0002366688	531
bin	0.0002375232	518
bin	0.0002383776	520
bin	0.000239232	499
bin	0.0002400864	518
bin	0.0002409408	607
bin	0.0002417952	678
bin	0.0002426496	822
bin	0.000243504	979
bin	0.0002443584	1209
bin	0.0002452128	1345
bin	0.0002460672	1579
bin	0.0002469216	1726
bin	0.000247776	1770
bin	0.0002486304	1907
bin	0.0002494848	1966
bin	0.0002503392	2062
bin	0.0002511936	2159
bin	0.000252048	2274
bin	0.0002529024	2067
bin	0.0002537568	1931
bin	0.0002546112	1911
bin	0.0002554656	1645
bin	0.00025632	1357
bin	0.0002571744	1292
bin	0.0002580288	1240
bin	0.0002588832	1097
bin	0.0002597376	1084
bin	0.000260592	932
bin	0.0002614464	851
bin	0.0002623008	797
bin	0.0002631552	719
bin	0.0002640096	661
bin	0.000264864	629
bin	0.0002657184	603
bin	0.0002665728	554
bin	0.0002674272	537
bin	0.0002682816	507
bin	0.000269136	538
bin	0.0002699904	489
bin	0.0002708448	499
bin	0.0002716992	528
bin	0.0002725536	520
bin	0.000273408	527
bin	0.0002742624	516
bin	0.0002751168	591
bin	0.0002759712	552
bin	0.0002768256	533
bin	0.00027768	508
bin	0.0002785344	573
bin	0.0002793888	540
bin	0.0002802432	509
bin	0.0002810976	566
bin	0.000281952	615
bin	0.0002828064	707
bin	0.0002836608	792
bin	0.0002845152	942
bin	0.0002853696	1078
bin	0.000286224	1259
bin	0.0002870784	1309
bin	0.0002879328	1401
bin	0.0002887872	1482
bin	0.0002896416	1651
bin	0.000290496	1689
bin	0.0002913504	1744
bin	0.0002922048	1910
bin	0.0002930592	1963
bin	0.0002939136	1774
bin	0.000294768	1655
bin	0.0002956224	1639
bin	0.0002964768	1358
bin	0.0002973312	1217
bin	0.0002981856	1113
bin	0.00029904	1024
bin	0.0002998944	975
bin	0.0003007488	874
bin	0.0003016032	860
bin	0.0003024576	798
bin	0.000303312	755
bin	0.0003041664	728
bin	0.0003050208	622
bin	0.0003058752	652
bin	0.0003067296	625
bin	0.000307584	589
bin	0.0003084384	568
bin	0.0003092928	586
bin	0.0003101472	614
bin	0.0003110016	593
bin	0.000311856	567
bin	0.0003127104	589
bin	0.0003135648	558
bin	0.0003144192	535
bin	0.0003152736	570
bin	0.000316128	595
bin	0.0003169824	603
bin	0.0003178368	579
bin	0.0003186912	596
bin	0.0003195456	575
bin	0.0003204	580
bin	0.0003212544	577
bin	0.0003221088	562
bin	0.0003229632	552
bin	0.0003238176	594
bin	0.000324672	692
bin	0.0003255264	722
bin	0.0003263808	820
bin	0.0003272352	940
bin	0.0003280896	934
bin	0.000328944	963
bin	0.0003297984	1019
bin	0.0003306528	1177
bin	0.0003315072	1170
bin	0.0003323616	1289
bin	0.000333216	1363
bin	0.0003340704	1378
bin	0.0003349248	1231
bin	0.0003357792	1130
bin	0.0003366336	1103
bin	0.000337488	1005
bin	0.0003383424	920
bin	0.0003391968	853
bin	0.0003400512	847
bin	0.0003409056	795
bin	0.00034176	773
bin	0.0003426144	703
bin	0.0003434688	680
bin	0.0003443232	663
bin	0.0003451776	649
bin	0.000346032	649
bin	0.0003468864	631
bin	0.0003477408	576
bin	0.0003485952	552
bin	0.0003494496	570
bin	0.000350304	534
bin	0.0003511584	517
bin	0.0003520128	513
bin	0.0003528672	493
bin	0.0003537216	482
bin	0.000354576	465
bin	0.0003554304	428
bin	0.0003562848	403
bin	0.0003571392	419
bin	0.0003579936	355
bin	0.000358848	349
bin	0.0003597024	394
bin	0.0003605568	408
bin	0.0003614112	356
bin	0.0003622656	367
bin	0.00036312	408
bin	0.0003639744	381
bin	0.0003648288	421
bin	0.0003656832	493
bin	0.0003665376	571
bin	0.000367392	585
bin	0.0003682464	715
bin	0.0003691008	731
bin	0.0003699552	755
bin	0.0003708096	814
bin	0.000371664	904
bin	0.0003725184	906
bin	0.0003733728	967
bin	0.0003742272	1060
bin	0.0003750816	1081
bin	0.000375936	995
bin	0.0003767904	964
bin	0.0003776448	1003
bin	0.0003784992	869
bin	0.0003793536	754
bin	0.000380208	720
bin	0.0003810624	750
bin	0.0003819168	706
bin	0.0003827712	652
bin	0.0003836256	602
bin	0.00038448	566
bin	0.0003853344	514
bin	0.0003861888	507
bin	0.0003870432	445
bin	0.0003878976	476
bin	0.000388752	459
bin	0.0003896064	445
bin	0.0003904608	444
bin	0.0003913152	467
bin	0.0003921696	429
bin	0.000393024	370
bin	0.0003938784	428
bin	0.0003947328	457
bin	0.0003955872	433
bin	0.0003964416	453
bin	0.000397296	465
bin	0.0003981504	433
bin	0.0003990048	410
bin	0.0003998592	444
bin	0.0004007136	458
bin	0.000401568	458
bin	0.0004024224	471
bin	0.0004032768	507
bin	0.0004041312	503
bin	0.0004049856	485
bin	0.00040584	548
bin	0.0004066944	544
bin	0.0004075488	512
bin	0.0004084032	550
bin	0.0004092576	588
bin	0.000410112	612
bin	0.0004109664	615
bin	0.0004118208	668
bin	0.0004126752	664
bin	0.0004135296	675
bin	0.000414384	713
bin	0.0004152384	721
bin	0.0004160928	731
bin	0.0004169472	733
bin	0.0004178016	745
bin	0.000418656	779
bin	0.0004195104	694
bin	0.0004203648	651
bin	0.0004212192	652
bin	0.0004220736	630
bin	0.000422928	575
bin	0.0004237824	577
bin	0.0004246368	563
bin	0.0004254912	529
bin	0.0004263456	497
bin	0.0004272	3691292
