version 2
run Bitcomplement-28-20120709-20:30:29-24907
attr alg 0
attr buf 8
attr configname Bitcomplement
attr datetime 20120709-20:30:29
attr delta 0.4
attr experiment Bitcomplement
attr ext false
attr inifile altro.ini
attr iterationvars "$buf=8, $ext=false, $ofedge=1, $delta=0.4, $alg=0"
attr iterationvars2 "$buf=8, $ext=false, $ofedge=1, $delta=0.4, $alg=0, $repetition=0"
attr measurement "$buf=8, $ext=false, $ofedge=1, $delta=0.4, $alg=0"
attr network Torus3d_bub
attr ofedge 1
attr processid 24907
attr repetition 0
attr replication #0
attr resultdir altro-results
attr runnumber 28
attr seedset 28

scalar . 	alg 	0
scalar . 	buf 	8
scalar . 	delta 	0.4
scalar . 	ofedge 	1
scalar Torus3d_bub.timer 	#endTime 	0.004339814993221
scalar Torus3d_bub.timer 	#totalHops 	75497472
scalar Torus3d_bub.timer 	#totalPacks 	6291456
scalar Torus3d_bub.timer 	#totalDerouted 	0
scalar Torus3d_bub.timer 	#totalOutFlanked 	0
scalar Torus3d_bub.timer 	#totalCQRed 	0
scalar Torus3d_bub.timer 	#LB 	0.000786432
scalar Torus3d_bub.timer 	#ratio 	0.18121325476511
statistic Torus3d_bub.timer 	"Hop Times"
field count 6291456
field mean 6.2093776935234e-05
field stddev 0.00015535007811031
field sum 390.66026546184
field sqrsum 0.17609332401334
field min 3.99618932e-07
field max 0.001386133333333
bin	-INF	0
bin	0	0
bin	7.12e-08	0
bin	1.424e-07	0
bin	2.136e-07	0
bin	2.848e-07	0
bin	3.56e-07	60
bin	4.272e-07	5521
bin	4.984e-07	16957
bin	5.696e-07	32102
bin	6.408e-07	44249
bin	7.12e-07	53966
bin	7.832e-07	67695
bin	8.544e-07	80434
bin	9.256e-07	90981
bin	9.968e-07	97359
bin	1.068e-06	101498
bin	1.1392e-06	103559
bin	1.2104e-06	101343
bin	1.2816e-06	95686
bin	1.3528e-06	90990
bin	1.424e-06	85848
bin	1.4952e-06	79316
bin	1.5664e-06	74637
bin	1.6376e-06	68916
bin	1.7088e-06	64296
bin	1.78e-06	61223
bin	1.8512e-06	61605
bin	1.9224e-06	63942
bin	1.9936e-06	65824
bin	2.0648e-06	69561
bin	2.136e-06	71990
bin	2.2072e-06	74322
bin	2.2784e-06	74747
bin	2.3496e-06	74354
bin	2.4208e-06	73673
bin	2.492e-06	71806
bin	2.5632e-06	68555
bin	2.6344e-06	67023
bin	2.7056e-06	64795
bin	2.7768e-06	63083
bin	2.848e-06	61418
bin	2.9192e-06	60604
bin	2.9904e-06	58514
bin	3.0616e-06	57830
bin	3.1328e-06	57546
bin	3.204e-06	57566
bin	3.2752e-06	57776
bin	3.3464e-06	58017
bin	3.4176e-06	56444
bin	3.4888e-06	56018
bin	3.56e-06	55343
bin	3.6312e-06	54576
bin	3.7024e-06	54152
bin	3.7736e-06	53296
bin	3.8448e-06	53719
bin	3.916e-06	54651
bin	3.9872e-06	53960
bin	4.0584e-06	54744
bin	4.1296e-06	54397
bin	4.2008e-06	52525
bin	4.272e-06	51715
bin	4.3432e-06	49899
bin	4.4144e-06	48437
bin	4.4856e-06	47650
bin	4.5568e-06	45978
bin	4.628e-06	44065
bin	4.6992e-06	42372
bin	4.7704e-06	40711
bin	4.8416e-06	38211
bin	4.9128e-06	36512
bin	4.984e-06	34397
bin	5.0552e-06	32843
bin	5.1264e-06	32147
bin	5.1976e-06	30952
bin	5.2688e-06	29209
bin	5.34e-06	27957
bin	5.4112e-06	26215
bin	5.4824e-06	25087
bin	5.5536e-06	23699
bin	5.6248e-06	22327
bin	5.696e-06	21131
bin	5.7672e-06	20120
bin	5.8384e-06	19404
bin	5.9096e-06	18678
bin	5.9808e-06	18284
bin	6.052e-06	17644
bin	6.1232e-06	16898
bin	6.1944e-06	16247
bin	6.2656e-06	15656
bin	6.3368e-06	14660
bin	6.408e-06	13887
bin	6.4792e-06	12903
bin	6.5504e-06	11910
bin	6.6216e-06	11559
bin	6.6928e-06	11008
bin	6.764e-06	10423
bin	6.8352e-06	9972
bin	6.9064e-06	9695
bin	6.9776e-06	9096
bin	7.0488e-06	8776
bin	7.12e-06	8567
bin	7.1912e-06	8462
bin	7.2624e-06	8017
bin	7.3336e-06	7756
bin	7.4048e-06	7609
bin	7.476e-06	6952
bin	7.5472e-06	6014
bin	7.6184e-06	5548
bin	7.6896e-06	5090
bin	7.7608e-06	4232
bin	7.832e-06	3639
bin	7.9032e-06	3129
bin	7.9744e-06	2545
bin	8.0456e-06	2305
bin	8.1168e-06	2024
bin	8.188e-06	1972
bin	8.2592e-06	2052
bin	8.3304e-06	1993
bin	8.4016e-06	2012
bin	8.4728e-06	2098
bin	8.544e-06	2065
bin	8.6152e-06	2156
bin	8.6864e-06	2249
bin	8.7576e-06	2158
bin	8.8288e-06	2178
bin	8.9e-06	2222
bin	8.9712e-06	2298
bin	9.0424e-06	2127
bin	9.1136e-06	2151
bin	9.1848e-06	2026
bin	9.256e-06	1956
bin	9.3272e-06	1780
bin	9.3984e-06	1755
bin	9.4696e-06	1678
bin	9.5408e-06	1604
bin	9.612e-06	1480
bin	9.6832e-06	1430
bin	9.7544e-06	1355
bin	9.8256e-06	1362
bin	9.8968e-06	1456
bin	9.968e-06	1439
bin	1.00392e-05	1394
bin	1.01104e-05	1466
bin	1.01816e-05	1354
bin	1.02528e-05	1353
bin	1.0324e-05	1456
bin	1.03952e-05	1415
bin	1.04664e-05	1483
bin	1.05376e-05	1428
bin	1.06088e-05	1532
bin	1.068e-05	1550
bin	1.07512e-05	1544
bin	1.08224e-05	1637
bin	1.08936e-05	1573
bin	1.09648e-05	1503
bin	1.1036e-05	1530
bin	1.11072e-05	1561
bin	1.11784e-05	1529
bin	1.12496e-05	1522
bin	1.13208e-05	1510
bin	1.1392e-05	1602
bin	1.14632e-05	1429
bin	1.15344e-05	1500
bin	1.16056e-05	1476
bin	1.16768e-05	1475
bin	1.1748e-05	1387
bin	1.18192e-05	1283
bin	1.18904e-05	1191
bin	1.19616e-05	1095
bin	1.20328e-05	1028
bin	1.2104e-05	997
bin	1.21752e-05	904
bin	1.22464e-05	871
bin	1.23176e-05	827
bin	1.23888e-05	850
bin	1.246e-05	832
bin	1.25312e-05	962
bin	1.26024e-05	1165
bin	1.26736e-05	1149
bin	1.27448e-05	1153
bin	1.2816e-05	1226
bin	1.28872e-05	1419
bin	1.29584e-05	1444
bin	1.30296e-05	1622
bin	1.31008e-05	1787
bin	1.3172e-05	1838
bin	1.32432e-05	1836
bin	1.33144e-05	1979
bin	1.33856e-05	2055
bin	1.34568e-05	2083
bin	1.3528e-05	2130
bin	1.35992e-05	2351
bin	1.36704e-05	2320
bin	1.37416e-05	2442
bin	1.38128e-05	2454
bin	1.3884e-05	2640
bin	1.39552e-05	2474
bin	1.40264e-05	2825
bin	1.40976e-05	2911
bin	1.41688e-05	2795
bin	1.424e-05	2888
bin	1.43112e-05	2498
bin	1.43824e-05	2391
bin	1.44536e-05	2148
bin	1.45248e-05	1903
bin	1.4596e-05	1768
bin	1.46672e-05	1383
bin	1.47384e-05	1195
bin	1.48096e-05	928
bin	1.48808e-05	849
bin	1.4952e-05	760
bin	1.50232e-05	710
bin	1.50944e-05	777
bin	1.51656e-05	672
bin	1.52368e-05	693
bin	1.5308e-05	601
bin	1.53792e-05	620
bin	1.54504e-05	515
bin	1.55216e-05	483
bin	1.55928e-05	446
bin	1.5664e-05	434
bin	1.57352e-05	416
bin	1.58064e-05	439
bin	1.58776e-05	480
bin	1.59488e-05	434
bin	1.602e-05	515
bin	1.60912e-05	483
bin	1.61624e-05	530
bin	1.62336e-05	470
bin	1.63048e-05	461
bin	1.6376e-05	560
bin	1.64472e-05	493
bin	1.65184e-05	525
bin	1.65896e-05	570
bin	1.66608e-05	565
bin	1.6732e-05	556
bin	1.68032e-05	577
bin	1.68744e-05	521
bin	1.69456e-05	663
bin	1.70168e-05	595
bin	1.7088e-05	625
bin	1.71592e-05	697
bin	1.72304e-05	651
bin	1.73016e-05	681
bin	1.73728e-05	644
bin	1.7444e-05	670
bin	1.75152e-05	627
bin	1.75864e-05	570
bin	1.76576e-05	591
bin	1.77288e-05	610
bin	1.78e-05	487
bin	1.78712e-05	486
bin	1.79424e-05	425
bin	1.80136e-05	422
bin	1.80848e-05	393
bin	1.8156e-05	325
bin	1.82272e-05	366
bin	1.82984e-05	297
bin	1.83696e-05	296
bin	1.84408e-05	279
bin	1.8512e-05	235
bin	1.85832e-05	231
bin	1.86544e-05	215
bin	1.87256e-05	224
bin	1.87968e-05	203
bin	1.8868e-05	201
bin	1.89392e-05	201
bin	1.90104e-05	249
bin	1.90816e-05	246
bin	1.91528e-05	304
bin	1.9224e-05	354
bin	1.92952e-05	473
bin	1.93664e-05	456
bin	1.94376e-05	559
bin	1.95088e-05	639
bin	1.958e-05	658
bin	1.96512e-05	770
bin	1.97224e-05	858
bin	1.97936e-05	897
bin	1.98648e-05	973
bin	1.9936e-05	1031
bin	2.00072e-05	1094
bin	2.00784e-05	1135
bin	2.01496e-05	1122
bin	2.02208e-05	1208
bin	2.0292e-05	1313
bin	2.03632e-05	1259
bin	2.04344e-05	1307
bin	2.05056e-05	1368
bin	2.05768e-05	1396
bin	2.0648e-05	1382
bin	2.07192e-05	1486
bin	2.07904e-05	1545
bin	2.08616e-05	1612
bin	2.09328e-05	1726
bin	2.1004e-05	1649
bin	2.10752e-05	1687
bin	2.11464e-05	1471
bin	2.12176e-05	1465
bin	2.12888e-05	1353
bin	2.136e-05	1259
bin	2.14312e-05	1178
bin	2.15024e-05	1032
bin	2.15736e-05	993
bin	2.16448e-05	842
bin	2.1716e-05	757
bin	2.17872e-05	715
bin	2.18584e-05	744
bin	2.19296e-05	745
bin	2.20008e-05	721
bin	2.2072e-05	672
bin	2.21432e-05	657
bin	2.22144e-05	630
bin	2.22856e-05	575
bin	2.23568e-05	545
bin	2.2428e-05	475
bin	2.24992e-05	486
bin	2.25704e-05	470
bin	2.26416e-05	477
bin	2.27128e-05	417
bin	2.2784e-05	473
bin	2.28552e-05	459
bin	2.29264e-05	442
bin	2.29976e-05	413
bin	2.30688e-05	371
bin	2.314e-05	401
bin	2.32112e-05	392
bin	2.32824e-05	333
bin	2.33536e-05	289
bin	2.34248e-05	303
bin	2.3496e-05	249
bin	2.35672e-05	230
bin	2.36384e-05	202
bin	2.37096e-05	182
bin	2.37808e-05	159
bin	2.3852e-05	174
bin	2.39232e-05	147
bin	2.39944e-05	137
bin	2.40656e-05	168
bin	2.41368e-05	154
bin	2.4208e-05	127
bin	2.42792e-05	110
bin	2.43504e-05	117
bin	2.44216e-05	129
bin	2.44928e-05	142
bin	2.4564e-05	128
bin	2.46352e-05	128
bin	2.47064e-05	123
bin	2.47776e-05	104
bin	2.48488e-05	132
bin	2.492e-05	121
bin	2.49912e-05	141
bin	2.50624e-05	124
bin	2.51336e-05	122
bin	2.52048e-05	128
bin	2.5276e-05	137
bin	2.53472e-05	154
bin	2.54184e-05	159
bin	2.54896e-05	164
bin	2.55608e-05	151
bin	2.5632e-05	143
bin	2.57032e-05	155
bin	2.57744e-05	144
bin	2.58456e-05	148
bin	2.59168e-05	179
bin	2.5988e-05	191
bin	2.60592e-05	188
bin	2.61304e-05	210
bin	2.62016e-05	247
bin	2.62728e-05	297
bin	2.6344e-05	352
bin	2.64152e-05	376
bin	2.64864e-05	461
bin	2.65576e-05	502
bin	2.66288e-05	561
bin	2.67e-05	637
bin	2.67712e-05	689
bin	2.68424e-05	769
bin	2.69136e-05	848
bin	2.69848e-05	883
bin	2.7056e-05	914
bin	2.71272e-05	966
bin	2.71984e-05	1015
bin	2.72696e-05	1179
bin	2.73408e-05	1074
bin	2.7412e-05	1157
bin	2.74832e-05	1180
bin	2.75544e-05	1280
bin	2.76256e-05	1352
bin	2.76968e-05	1291
bin	2.7768e-05	1375
bin	2.78392e-05	1295
bin	2.79104e-05	1363
bin	2.79816e-05	1270
bin	2.80528e-05	1222
bin	2.8124e-05	1082
bin	2.81952e-05	1068
bin	2.82664e-05	941
bin	2.83376e-05	723
bin	2.84088e-05	677
bin	2.848e-05	608
bin	2.85512e-05	550
bin	2.86224e-05	477
bin	2.86936e-05	449
bin	2.87648e-05	409
bin	2.8836e-05	401
bin	2.89072e-05	361
bin	2.89784e-05	398
bin	2.90496e-05	414
bin	2.91208e-05	341
bin	2.9192e-05	328
bin	2.92632e-05	278
bin	2.93344e-05	248
bin	2.94056e-05	211
bin	2.94768e-05	240
bin	2.9548e-05	213
bin	2.96192e-05	245
bin	2.96904e-05	186
bin	2.97616e-05	183
bin	2.98328e-05	168
bin	2.9904e-05	179
bin	2.99752e-05	164
bin	3.00464e-05	168
bin	3.01176e-05	137
bin	3.01888e-05	150
bin	3.026e-05	132
bin	3.03312e-05	129
bin	3.04024e-05	141
bin	3.04736e-05	130
bin	3.05448e-05	134
bin	3.0616e-05	121
bin	3.06872e-05	130
bin	3.07584e-05	138
bin	3.08296e-05	121
bin	3.09008e-05	120
bin	3.0972e-05	98
bin	3.10432e-05	119
bin	3.11144e-05	112
bin	3.11856e-05	131
bin	3.12568e-05	126
bin	3.1328e-05	128
bin	3.13992e-05	143
bin	3.14704e-05	150
bin	3.15416e-05	153
bin	3.16128e-05	170
bin	3.1684e-05	162
bin	3.17552e-05	155
bin	3.18264e-05	165
bin	3.18976e-05	175
bin	3.19688e-05	197
bin	3.204e-05	170
bin	3.21112e-05	205
bin	3.21824e-05	188
bin	3.22536e-05	190
bin	3.23248e-05	183
bin	3.2396e-05	207
bin	3.24672e-05	188
bin	3.25384e-05	187
bin	3.26096e-05	186
bin	3.26808e-05	178
bin	3.2752e-05	202
bin	3.28232e-05	215
bin	3.28944e-05	239
bin	3.29656e-05	255
bin	3.30368e-05	312
bin	3.3108e-05	331
bin	3.31792e-05	370
bin	3.32504e-05	400
bin	3.33216e-05	395
bin	3.33928e-05	468
bin	3.3464e-05	494
bin	3.35352e-05	541
bin	3.36064e-05	616
bin	3.36776e-05	675
bin	3.37488e-05	731
bin	3.382e-05	749
bin	3.38912e-05	869
bin	3.39624e-05	978
bin	3.40336e-05	1008
bin	3.41048e-05	1048
bin	3.4176e-05	1087
bin	3.42472e-05	1040
bin	3.43184e-05	1047
bin	3.43896e-05	1102
bin	3.44608e-05	1165
bin	3.4532e-05	1208
bin	3.46032e-05	1283
bin	3.46744e-05	1210
bin	3.47456e-05	1113
bin	3.48168e-05	1002
bin	3.4888e-05	899
bin	3.49592e-05	923
bin	3.50304e-05	867
bin	3.51016e-05	732
bin	3.51728e-05	610
bin	3.5244e-05	479
bin	3.53152e-05	485
bin	3.53864e-05	390
bin	3.54576e-05	343
bin	3.55288e-05	304
bin	3.56e-05	1367644
statistic Torus3d_bub.timer 	"Life Times"
field count 6291456
field mean 0.00036630744173916
field stddev 0.00070337559246451
field sum 2304.6071521745
field sqrsum 3.9568117322183
field min 1.250333333e-06
field max 0.004159143
bin	-INF	0
bin	0	0
bin	8.544e-07	64
bin	1.7088e-06	80
bin	2.5632e-06	236
bin	3.4176e-06	1188
bin	4.272e-06	4722
bin	5.1264e-06	6789
bin	5.9808e-06	13033
bin	6.8352e-06	19477
bin	7.6896e-06	26863
bin	8.544e-06	33476
bin	9.3984e-06	41520
bin	1.02528e-05	49527
bin	1.11072e-05	54078
bin	1.19616e-05	57292
bin	1.2816e-05	59625
bin	1.36704e-05	61971
bin	1.45248e-05	64778
bin	1.53792e-05	65051
bin	1.62336e-05	65493
bin	1.7088e-05	65976
bin	1.79424e-05	64448
bin	1.87968e-05	62338
bin	1.96512e-05	59485
bin	2.05056e-05	57227
bin	2.136e-05	56615
bin	2.22144e-05	55564
bin	2.30688e-05	55248
bin	2.39232e-05	56430
bin	2.47776e-05	56542
bin	2.5632e-05	58537
bin	2.64864e-05	60701
bin	2.73408e-05	62273
bin	2.81952e-05	63699
bin	2.90496e-05	66960
bin	2.9904e-05	67499
bin	3.07584e-05	70046
bin	3.16128e-05	70619
bin	3.24672e-05	71712
bin	3.33216e-05	72857
bin	3.4176e-05	74220
bin	3.50304e-05	75221
bin	3.58848e-05	77452
bin	3.67392e-05	77800
bin	3.75936e-05	77665
bin	3.8448e-05	77505
bin	3.93024e-05	78132
bin	4.01568e-05	78887
bin	4.10112e-05	79247
bin	4.18656e-05	80962
bin	4.272e-05	82248
bin	4.35744e-05	82284
bin	4.44288e-05	82701
bin	4.52832e-05	82446
bin	4.61376e-05	79783
bin	4.6992e-05	79025
bin	4.78464e-05	77357
bin	4.87008e-05	75246
bin	4.95552e-05	73481
bin	5.04096e-05	72680
bin	5.1264e-05	70340
bin	5.21184e-05	68138
bin	5.29728e-05	66665
bin	5.38272e-05	64821
bin	5.46816e-05	63585
bin	5.5536e-05	62267
bin	5.63904e-05	59742
bin	5.72448e-05	58084
bin	5.80992e-05	54754
bin	5.89536e-05	52327
bin	5.9808e-05	49942
bin	6.06624e-05	47831
bin	6.15168e-05	45837
bin	6.23712e-05	43045
bin	6.32256e-05	39670
bin	6.408e-05	38148
bin	6.49344e-05	35548
bin	6.57888e-05	33271
bin	6.66432e-05	32230
bin	6.74976e-05	28531
bin	6.8352e-05	25324
bin	6.92064e-05	21803
bin	7.00608e-05	18344
bin	7.09152e-05	15343
bin	7.17696e-05	12169
bin	7.2624e-05	10331
bin	7.34784e-05	8728
bin	7.43328e-05	7340
bin	7.51872e-05	6167
bin	7.60416e-05	5121
bin	7.6896e-05	4494
bin	7.77504e-05	3844
bin	7.86048e-05	3402
bin	7.94592e-05	2907
bin	8.03136e-05	2318
bin	8.1168e-05	2080
bin	8.20224e-05	1732
bin	8.28768e-05	1608
bin	8.37312e-05	1353
bin	8.45856e-05	1244
bin	8.544e-05	1098
bin	8.62944e-05	915
bin	8.71488e-05	765
bin	8.80032e-05	693
bin	8.88576e-05	594
bin	8.9712e-05	491
bin	9.05664e-05	433
bin	9.14208e-05	364
bin	9.22752e-05	383
bin	9.31296e-05	327
bin	9.3984e-05	327
bin	9.48384e-05	373
bin	9.56928e-05	334
bin	9.65472e-05	399
bin	9.74016e-05	473
bin	9.8256e-05	481
bin	9.91104e-05	480
bin	9.99648e-05	475
bin	0.0001008192	505
bin	0.0001016736	481
bin	0.000102528	472
bin	0.0001033824	486
bin	0.0001042368	474
bin	0.0001050912	616
bin	0.0001059456	686
bin	0.0001068	740
bin	0.0001076544	892
bin	0.0001085088	1119
bin	0.0001093632	1239
bin	0.0001102176	1534
bin	0.000111072	1889
bin	0.0001119264	2178
bin	0.0001127808	2696
bin	0.0001136352	2974
bin	0.0001144896	3291
bin	0.000115344	3643
bin	0.0001161984	4043
bin	0.0001170528	4388
bin	0.0001179072	4814
bin	0.0001187616	4899
bin	0.000119616	5078
bin	0.0001204704	5176
bin	0.0001213248	5234
bin	0.0001221792	5628
bin	0.0001230336	5669
bin	0.000123888	5753
bin	0.0001247424	5958
bin	0.0001255968	5815
bin	0.0001264512	6149
bin	0.0001273056	6020
bin	0.00012816	6025
bin	0.0001290144	5532
bin	0.0001298688	4872
bin	0.0001307232	4340
bin	0.0001315776	3798
bin	0.000132432	3011
bin	0.0001332864	2529
bin	0.0001341408	2191
bin	0.0001349952	1982
bin	0.0001358496	1927
bin	0.000136704	1541
bin	0.0001375584	1318
bin	0.0001384128	1183
bin	0.0001392672	964
bin	0.0001401216	783
bin	0.000140976	657
bin	0.0001418304	591
bin	0.0001426848	537
bin	0.0001435392	435
bin	0.0001443936	393
bin	0.000145248	411
bin	0.0001461024	336
bin	0.0001469568	305
bin	0.0001478112	272
bin	0.0001486656	241
bin	0.00014952	228
bin	0.0001503744	206
bin	0.0001512288	202
bin	0.0001520832	229
bin	0.0001529376	226
bin	0.000153792	194
bin	0.0001546464	208
bin	0.0001555008	180
bin	0.0001563552	208
bin	0.0001572096	190
bin	0.000158064	220
bin	0.0001589184	192
bin	0.0001597728	196
bin	0.0001606272	215
bin	0.0001614816	186
bin	0.000162336	188
bin	0.0001631904	158
bin	0.0001640448	183
bin	0.0001648992	168
bin	0.0001657536	172
bin	0.000166608	178
bin	0.0001674624	196
bin	0.0001683168	193
bin	0.0001691712	208
bin	0.0001700256	229
bin	0.00017088	276
bin	0.0001717344	368
bin	0.0001725888	431
bin	0.0001734432	578
bin	0.0001742976	728
bin	0.000175152	867
bin	0.0001760064	1113
bin	0.0001768608	1276
bin	0.0001777152	1479
bin	0.0001785696	1556
bin	0.000179424	1732
bin	0.0001802784	1854
bin	0.0001811328	1879
bin	0.0001819872	2099
bin	0.0001828416	2212
bin	0.000183696	2256
bin	0.0001845504	2486
bin	0.0001854048	2357
bin	0.0001862592	2639
bin	0.0001871136	2748
bin	0.000187968	2876
bin	0.0001888224	2946
bin	0.0001896768	2860
bin	0.0001905312	2651
bin	0.0001913856	2397
bin	0.00019224	2175
bin	0.0001930944	1869
bin	0.0001939488	1661
bin	0.0001948032	1435
bin	0.0001956576	1205
bin	0.000196512	1150
bin	0.0001973664	1088
bin	0.0001982208	984
bin	0.0001990752	822
bin	0.0001999296	837
bin	0.000200784	710
bin	0.0002016384	640
bin	0.0002024928	569
bin	0.0002033472	562
bin	0.0002042016	464
bin	0.000205056	397
bin	0.0002059104	426
bin	0.0002067648	334
bin	0.0002076192	314
bin	0.0002084736	292
bin	0.000209328	314
bin	0.0002101824	237
bin	0.0002110368	233
bin	0.0002118912	226
bin	0.0002127456	184
bin	0.0002136	158
bin	0.0002144544	167
bin	0.0002153088	169
bin	0.0002161632	154
bin	0.0002170176	140
bin	0.000217872	127
bin	0.0002187264	131
bin	0.0002195808	128
bin	0.0002204352	151
bin	0.0002212896	159
bin	0.000222144	130
bin	0.0002229984	126
bin	0.0002238528	117
bin	0.0002247072	167
bin	0.0002255616	139
bin	0.000226416	155
bin	0.0002272704	158
bin	0.0002281248	171
bin	0.0002289792	183
bin	0.0002298336	178
bin	0.000230688	228
bin	0.0002315424	210
bin	0.0002323968	249
bin	0.0002332512	267
bin	0.0002341056	367
bin	0.00023496	389
bin	0.0002358144	528
bin	0.0002366688	617
bin	0.0002375232	697
bin	0.0002383776	842
bin	0.000239232	915
bin	0.0002400864	1084
bin	0.0002409408	1129
bin	0.0002417952	1347
bin	0.0002426496	1421
bin	0.000243504	1463
bin	0.0002443584	1554
bin	0.0002452128	1702
bin	0.0002460672	1694
bin	0.0002469216	1782
bin	0.000247776	1938
bin	0.0002486304	1995
bin	0.0002494848	2071
bin	0.0002503392	2010
bin	0.0002511936	2034
bin	0.000252048	1825
bin	0.0002529024	1731
bin	0.0002537568	1542
bin	0.0002546112	1295
bin	0.0002554656	1103
bin	0.00025632	910
bin	0.0002571744	862
bin	0.0002580288	739
bin	0.0002588832	642
bin	0.0002597376	581
bin	0.000260592	554
bin	0.0002614464	549
bin	0.0002623008	503
bin	0.0002631552	418
bin	0.0002640096	339
bin	0.000264864	290
bin	0.0002657184	305
bin	0.0002665728	285
bin	0.0002674272	272
bin	0.0002682816	228
bin	0.000269136	236
bin	0.0002699904	208
bin	0.0002708448	199
bin	0.0002716992	179
bin	0.0002725536	184
bin	0.000273408	181
bin	0.0002742624	168
bin	0.0002751168	178
bin	0.0002759712	165
bin	0.0002768256	173
bin	0.00027768	164
bin	0.0002785344	142
bin	0.0002793888	183
bin	0.0002802432	172
bin	0.0002810976	178
bin	0.000281952	182
bin	0.0002828064	192
bin	0.0002836608	219
bin	0.0002845152	220
bin	0.0002853696	229
bin	0.000286224	218
bin	0.0002870784	252
bin	0.0002879328	249
bin	0.0002887872	264
bin	0.0002896416	271
bin	0.000290496	257
bin	0.0002913504	294
bin	0.0002922048	243
bin	0.0002930592	262
bin	0.0002939136	265
bin	0.000294768	322
bin	0.0002956224	342
bin	0.0002964768	377
bin	0.0002973312	450
bin	0.0002981856	505
bin	0.00029904	578
bin	0.0002998944	583
bin	0.0003007488	677
bin	0.0003016032	746
bin	0.0003024576	881
bin	0.000303312	937
bin	0.0003041664	1051
bin	0.0003050208	1262
bin	0.0003058752	1378
bin	0.0003067296	1483
bin	0.000307584	1527
bin	0.0003084384	1444
bin	0.0003092928	1547
bin	0.0003101472	1629
bin	0.0003110016	1727
bin	0.000311856	1675
bin	0.0003127104	1537
bin	0.0003135648	1284
bin	0.0003144192	1291
bin	0.0003152736	1168
bin	0.000316128	948
bin	0.0003169824	723
bin	0.0003178368	648
bin	0.0003186912	561
bin	0.0003195456	480
bin	0.0003204	472
bin	0.0003212544	419
bin	0.0003221088	436
bin	0.0003229632	403
bin	0.0003238176	362
bin	0.000324672	328
bin	0.0003255264	340
bin	0.0003263808	305
bin	0.0003272352	288
bin	0.0003280896	284
bin	0.000328944	286
bin	0.0003297984	250
bin	0.0003306528	269
bin	0.0003315072	249
bin	0.0003323616	236
bin	0.000333216	247
bin	0.0003340704	281
bin	0.0003349248	292
bin	0.0003357792	283
bin	0.0003366336	280
bin	0.000337488	292
bin	0.0003383424	272
bin	0.0003391968	275
bin	0.0003400512	279
bin	0.0003409056	259
bin	0.00034176	251
bin	0.0003426144	263
bin	0.0003434688	274
bin	0.0003443232	289
bin	0.0003451776	281
bin	0.000346032	298
bin	0.0003468864	299
bin	0.0003477408	299
bin	0.0003485952	293
bin	0.0003494496	286
bin	0.000350304	289
bin	0.0003511584	299
bin	0.0003520128	345
bin	0.0003528672	321
bin	0.0003537216	357
bin	0.000354576	383
bin	0.0003554304	394
bin	0.0003562848	382
bin	0.0003571392	371
bin	0.0003579936	386
bin	0.000358848	421
bin	0.0003597024	464
bin	0.0003605568	550
bin	0.0003614112	636
bin	0.0003622656	663
bin	0.00036312	722
bin	0.0003639744	814
bin	0.0003648288	963
bin	0.0003656832	1080
bin	0.0003665376	1067
bin	0.000367392	1177
bin	0.0003682464	1269
bin	0.0003691008	1356
bin	0.0003699552	1447
bin	0.0003708096	1580
bin	0.000371664	1590
bin	0.0003725184	1716
bin	0.0003733728	1612
bin	0.0003742272	1467
bin	0.0003750816	1290
bin	0.000375936	1253
bin	0.0003767904	1071
bin	0.0003776448	905
bin	0.0003784992	843
bin	0.0003793536	741
bin	0.000380208	620
bin	0.0003810624	545
bin	0.0003819168	522
bin	0.0003827712	505
bin	0.0003836256	462
bin	0.00038448	515
bin	0.0003853344	491
bin	0.0003861888	419
bin	0.0003870432	416
bin	0.0003878976	434
bin	0.000388752	393
bin	0.0003896064	365
bin	0.0003904608	351
bin	0.0003913152	302
bin	0.0003921696	320
bin	0.000393024	320
bin	0.0003938784	369
bin	0.0003947328	329
bin	0.0003955872	326
bin	0.0003964416	303
bin	0.000397296	293
bin	0.0003981504	302
bin	0.0003990048	284
bin	0.0003998592	314
bin	0.0004007136	340
bin	0.000401568	342
bin	0.0004024224	325
bin	0.0004032768	391
bin	0.0004041312	371
bin	0.0004049856	366
bin	0.00040584	311
bin	0.0004066944	357
bin	0.0004075488	327
bin	0.0004084032	332
bin	0.0004092576	346
bin	0.000410112	366
bin	0.0004109664	349
bin	0.0004118208	340
bin	0.0004126752	332
bin	0.0004135296	296
bin	0.000414384	303
bin	0.0004152384	297
bin	0.0004160928	303
bin	0.0004169472	291
bin	0.0004178016	257
bin	0.000418656	281
bin	0.0004195104	320
bin	0.0004203648	356
bin	0.0004212192	358
bin	0.0004220736	441
bin	0.000422928	477
bin	0.0004237824	602
bin	0.0004246368	665
bin	0.0004254912	793
bin	0.0004263456	836
bin	0.0004272	1306867
