version 2
run Bitcomplement-33-20120709-21:16:24-24915
attr alg 1
attr buf 8
attr configname Bitcomplement
attr datetime 20120709-21:16:24
attr delta 0.6
attr experiment Bitcomplement
attr ext false
attr inifile altro.ini
attr iterationvars "$buf=8, $ext=false, $ofedge=1, $delta=0.6, $alg=1"
attr iterationvars2 "$buf=8, $ext=false, $ofedge=1, $delta=0.6, $alg=1, $repetition=0"
attr measurement "$buf=8, $ext=false, $ofedge=1, $delta=0.6, $alg=1"
attr network Torus3d_bub
attr ofedge 1
attr processid 24915
attr repetition 0
attr replication #0
attr resultdir altro-results
attr runnumber 33
attr seedset 33

scalar . 	alg 	1
scalar . 	buf 	8
scalar . 	delta 	0.6
scalar . 	ofedge 	1
scalar Torus3d_bub.timer 	#endTime 	0.014567302977245
scalar Torus3d_bub.timer 	#totalHops 	103241088
scalar Torus3d_bub.timer 	#totalPacks 	6291456
scalar Torus3d_bub.timer 	#totalDerouted 	4207113
scalar Torus3d_bub.timer 	#totalOutFlanked 	4207113
scalar Torus3d_bub.timer 	#totalCQRed 	0
scalar Torus3d_bub.timer 	#LB 	0.000786432
scalar Torus3d_bub.timer 	#ratio 	0.053986108563023
statistic Torus3d_bub.timer 	"Hop Times"
field count 6291456
field mean 0.00048681450496803
field stddev 0.00037219724458658
field sum 3062.7720381681
field sqrsum 2.3625620779302
field min 4.16777777e-07
field max 0.004046992777777
bin	-INF	0
bin	0	0
bin	7.12e-08	0
bin	1.424e-07	0
bin	2.136e-07	0
bin	2.848e-07	0
bin	3.56e-07	16
bin	4.272e-07	208
bin	4.984e-07	1909
bin	5.696e-07	2324
bin	6.408e-07	2479
bin	7.12e-07	2788
bin	7.832e-07	3116
bin	8.544e-07	3577
bin	9.256e-07	3973
bin	9.968e-07	4421
bin	1.068e-06	4702
bin	1.1392e-06	4937
bin	1.2104e-06	5551
bin	1.2816e-06	5849
bin	1.3528e-06	6042
bin	1.424e-06	6287
bin	1.4952e-06	6380
bin	1.5664e-06	6524
bin	1.6376e-06	6591
bin	1.7088e-06	6241
bin	1.78e-06	6150
bin	1.8512e-06	6091
bin	1.9224e-06	5782
bin	1.9936e-06	5763
bin	2.0648e-06	5374
bin	2.136e-06	5497
bin	2.2072e-06	5433
bin	2.2784e-06	5210
bin	2.3496e-06	5143
bin	2.4208e-06	5195
bin	2.492e-06	4856
bin	2.5632e-06	4895
bin	2.6344e-06	4820
bin	2.7056e-06	4578
bin	2.7768e-06	4419
bin	2.848e-06	4237
bin	2.9192e-06	4036
bin	2.9904e-06	3769
bin	3.0616e-06	3563
bin	3.1328e-06	3495
bin	3.204e-06	3266
bin	3.2752e-06	3042
bin	3.3464e-06	2933
bin	3.4176e-06	2762
bin	3.4888e-06	2563
bin	3.56e-06	2505
bin	3.6312e-06	2482
bin	3.7024e-06	2444
bin	3.7736e-06	2332
bin	3.8448e-06	2226
bin	3.916e-06	2158
bin	3.9872e-06	2132
bin	4.0584e-06	2075
bin	4.1296e-06	1902
bin	4.2008e-06	1814
bin	4.272e-06	1769
bin	4.3432e-06	1763
bin	4.4144e-06	1619
bin	4.4856e-06	1628
bin	4.5568e-06	1479
bin	4.628e-06	1503
bin	4.6992e-06	1426
bin	4.7704e-06	1400
bin	4.8416e-06	1241
bin	4.9128e-06	1238
bin	4.984e-06	1263
bin	5.0552e-06	1153
bin	5.1264e-06	1165
bin	5.1976e-06	1131
bin	5.2688e-06	1102
bin	5.34e-06	1142
bin	5.4112e-06	1051
bin	5.4824e-06	1045
bin	5.5536e-06	992
bin	5.6248e-06	1005
bin	5.696e-06	1007
bin	5.7672e-06	975
bin	5.8384e-06	1026
bin	5.9096e-06	957
bin	5.9808e-06	1014
bin	6.052e-06	975
bin	6.1232e-06	983
bin	6.1944e-06	915
bin	6.2656e-06	929
bin	6.3368e-06	980
bin	6.408e-06	922
bin	6.4792e-06	938
bin	6.5504e-06	931
bin	6.6216e-06	924
bin	6.6928e-06	918
bin	6.764e-06	882
bin	6.8352e-06	891
bin	6.9064e-06	882
bin	6.9776e-06	901
bin	7.0488e-06	863
bin	7.12e-06	846
bin	7.1912e-06	803
bin	7.2624e-06	740
bin	7.3336e-06	703
bin	7.4048e-06	743
bin	7.476e-06	765
bin	7.5472e-06	785
bin	7.6184e-06	824
bin	7.6896e-06	788
bin	7.7608e-06	772
bin	7.832e-06	803
bin	7.9032e-06	776
bin	7.9744e-06	780
bin	8.0456e-06	696
bin	8.1168e-06	658
bin	8.188e-06	633
bin	8.2592e-06	605
bin	8.3304e-06	655
bin	8.4016e-06	650
bin	8.4728e-06	596
bin	8.544e-06	644
bin	8.6152e-06	647
bin	8.6864e-06	672
bin	8.7576e-06	682
bin	8.8288e-06	692
bin	8.9e-06	699
bin	8.9712e-06	674
bin	9.0424e-06	675
bin	9.1136e-06	725
bin	9.1848e-06	656
bin	9.256e-06	643
bin	9.3272e-06	576
bin	9.3984e-06	585
bin	9.4696e-06	591
bin	9.5408e-06	590
bin	9.612e-06	591
bin	9.6832e-06	575
bin	9.7544e-06	606
bin	9.8256e-06	608
bin	9.8968e-06	645
bin	9.968e-06	642
bin	1.00392e-05	604
bin	1.01104e-05	645
bin	1.01816e-05	628
bin	1.02528e-05	648
bin	1.0324e-05	671
bin	1.03952e-05	674
bin	1.04664e-05	627
bin	1.05376e-05	620
bin	1.06088e-05	573
bin	1.068e-05	564
bin	1.07512e-05	595
bin	1.08224e-05	572
bin	1.08936e-05	573
bin	1.09648e-05	594
bin	1.1036e-05	536
bin	1.11072e-05	538
bin	1.11784e-05	533
bin	1.12496e-05	585
bin	1.13208e-05	551
bin	1.1392e-05	571
bin	1.14632e-05	584
bin	1.15344e-05	561
bin	1.16056e-05	514
bin	1.16768e-05	511
bin	1.1748e-05	497
bin	1.18192e-05	530
bin	1.18904e-05	507
bin	1.19616e-05	509
bin	1.20328e-05	499
bin	1.2104e-05	507
bin	1.21752e-05	494
bin	1.22464e-05	474
bin	1.23176e-05	511
bin	1.23888e-05	470
bin	1.246e-05	506
bin	1.25312e-05	532
bin	1.26024e-05	474
bin	1.26736e-05	517
bin	1.27448e-05	527
bin	1.2816e-05	515
bin	1.28872e-05	507
bin	1.29584e-05	505
bin	1.30296e-05	471
bin	1.31008e-05	502
bin	1.3172e-05	463
bin	1.32432e-05	445
bin	1.33144e-05	429
bin	1.33856e-05	411
bin	1.34568e-05	384
bin	1.3528e-05	441
bin	1.35992e-05	454
bin	1.36704e-05	430
bin	1.37416e-05	438
bin	1.38128e-05	447
bin	1.3884e-05	416
bin	1.39552e-05	429
bin	1.40264e-05	444
bin	1.40976e-05	389
bin	1.41688e-05	419
bin	1.424e-05	393
bin	1.43112e-05	406
bin	1.43824e-05	439
bin	1.44536e-05	466
bin	1.45248e-05	463
bin	1.4596e-05	403
bin	1.46672e-05	405
bin	1.47384e-05	429
bin	1.48096e-05	399
bin	1.48808e-05	369
bin	1.4952e-05	392
bin	1.50232e-05	388
bin	1.50944e-05	399
bin	1.51656e-05	384
bin	1.52368e-05	395
bin	1.5308e-05	405
bin	1.53792e-05	420
bin	1.54504e-05	420
bin	1.55216e-05	402
bin	1.55928e-05	419
bin	1.5664e-05	446
bin	1.57352e-05	421
bin	1.58064e-05	409
bin	1.58776e-05	419
bin	1.59488e-05	402
bin	1.602e-05	408
bin	1.60912e-05	459
bin	1.61624e-05	437
bin	1.62336e-05	394
bin	1.63048e-05	404
bin	1.6376e-05	361
bin	1.64472e-05	367
bin	1.65184e-05	377
bin	1.65896e-05	367
bin	1.66608e-05	338
bin	1.6732e-05	346
bin	1.68032e-05	347
bin	1.68744e-05	337
bin	1.69456e-05	360
bin	1.70168e-05	331
bin	1.7088e-05	349
bin	1.71592e-05	364
bin	1.72304e-05	417
bin	1.73016e-05	421
bin	1.73728e-05	453
bin	1.7444e-05	452
bin	1.75152e-05	440
bin	1.75864e-05	431
bin	1.76576e-05	437
bin	1.77288e-05	387
bin	1.78e-05	418
bin	1.78712e-05	442
bin	1.79424e-05	426
bin	1.80136e-05	436
bin	1.80848e-05	419
bin	1.8156e-05	409
bin	1.82272e-05	386
bin	1.82984e-05	375
bin	1.83696e-05	370
bin	1.84408e-05	382
bin	1.8512e-05	355
bin	1.85832e-05	364
bin	1.86544e-05	343
bin	1.87256e-05	336
bin	1.87968e-05	340
bin	1.8868e-05	361
bin	1.89392e-05	371
bin	1.90104e-05	383
bin	1.90816e-05	411
bin	1.91528e-05	419
bin	1.9224e-05	422
bin	1.92952e-05	413
bin	1.93664e-05	411
bin	1.94376e-05	412
bin	1.95088e-05	406
bin	1.958e-05	397
bin	1.96512e-05	385
bin	1.97224e-05	423
bin	1.97936e-05	405
bin	1.98648e-05	369
bin	1.9936e-05	370
bin	2.00072e-05	367
bin	2.00784e-05	404
bin	2.01496e-05	377
bin	2.02208e-05	354
bin	2.0292e-05	334
bin	2.03632e-05	347
bin	2.04344e-05	337
bin	2.05056e-05	370
bin	2.05768e-05	338
bin	2.0648e-05	325
bin	2.07192e-05	312
bin	2.07904e-05	304
bin	2.08616e-05	311
bin	2.09328e-05	315
bin	2.1004e-05	309
bin	2.10752e-05	309
bin	2.11464e-05	314
bin	2.12176e-05	295
bin	2.12888e-05	300
bin	2.136e-05	294
bin	2.14312e-05	287
bin	2.15024e-05	294
bin	2.15736e-05	289
bin	2.16448e-05	297
bin	2.1716e-05	289
bin	2.17872e-05	311
bin	2.18584e-05	341
bin	2.19296e-05	345
bin	2.20008e-05	334
bin	2.2072e-05	308
bin	2.21432e-05	336
bin	2.22144e-05	339
bin	2.22856e-05	331
bin	2.23568e-05	321
bin	2.2428e-05	322
bin	2.24992e-05	338
bin	2.25704e-05	368
bin	2.26416e-05	333
bin	2.27128e-05	336
bin	2.2784e-05	346
bin	2.28552e-05	334
bin	2.29264e-05	319
bin	2.29976e-05	331
bin	2.30688e-05	321
bin	2.314e-05	327
bin	2.32112e-05	315
bin	2.32824e-05	300
bin	2.33536e-05	299
bin	2.34248e-05	283
bin	2.3496e-05	263
bin	2.35672e-05	270
bin	2.36384e-05	258
bin	2.37096e-05	273
bin	2.37808e-05	274
bin	2.3852e-05	301
bin	2.39232e-05	315
bin	2.39944e-05	321
bin	2.40656e-05	311
bin	2.41368e-05	344
bin	2.4208e-05	362
bin	2.42792e-05	334
bin	2.43504e-05	346
bin	2.44216e-05	349
bin	2.44928e-05	333
bin	2.4564e-05	327
bin	2.46352e-05	310
bin	2.47064e-05	338
bin	2.47776e-05	314
bin	2.48488e-05	291
bin	2.492e-05	275
bin	2.49912e-05	278
bin	2.50624e-05	256
bin	2.51336e-05	289
bin	2.52048e-05	310
bin	2.5276e-05	325
bin	2.53472e-05	329
bin	2.54184e-05	326
bin	2.54896e-05	332
bin	2.55608e-05	316
bin	2.5632e-05	323
bin	2.57032e-05	327
bin	2.57744e-05	339
bin	2.58456e-05	375
bin	2.59168e-05	339
bin	2.5988e-05	343
bin	2.60592e-05	323
bin	2.61304e-05	325
bin	2.62016e-05	363
bin	2.62728e-05	332
bin	2.6344e-05	339
bin	2.64152e-05	320
bin	2.64864e-05	325
bin	2.65576e-05	318
bin	2.66288e-05	296
bin	2.67e-05	303
bin	2.67712e-05	301
bin	2.68424e-05	303
bin	2.69136e-05	320
bin	2.69848e-05	308
bin	2.7056e-05	295
bin	2.71272e-05	288
bin	2.71984e-05	274
bin	2.72696e-05	273
bin	2.73408e-05	266
bin	2.7412e-05	289
bin	2.74832e-05	262
bin	2.75544e-05	272
bin	2.76256e-05	267
bin	2.76968e-05	273
bin	2.7768e-05	259
bin	2.78392e-05	274
bin	2.79104e-05	267
bin	2.79816e-05	274
bin	2.80528e-05	289
bin	2.8124e-05	274
bin	2.81952e-05	306
bin	2.82664e-05	289
bin	2.83376e-05	289
bin	2.84088e-05	297
bin	2.848e-05	277
bin	2.85512e-05	264
bin	2.86224e-05	264
bin	2.86936e-05	254
bin	2.87648e-05	266
bin	2.8836e-05	262
bin	2.89072e-05	246
bin	2.89784e-05	254
bin	2.90496e-05	255
bin	2.91208e-05	233
bin	2.9192e-05	258
bin	2.92632e-05	272
bin	2.93344e-05	275
bin	2.94056e-05	278
bin	2.94768e-05	288
bin	2.9548e-05	300
bin	2.96192e-05	310
bin	2.96904e-05	292
bin	2.97616e-05	279
bin	2.98328e-05	309
bin	2.9904e-05	307
bin	2.99752e-05	284
bin	3.00464e-05	305
bin	3.01176e-05	294
bin	3.01888e-05	300
bin	3.026e-05	302
bin	3.03312e-05	264
bin	3.04024e-05	264
bin	3.04736e-05	256
bin	3.05448e-05	253
bin	3.0616e-05	267
bin	3.06872e-05	255
bin	3.07584e-05	212
bin	3.08296e-05	250
bin	3.09008e-05	269
bin	3.0972e-05	279
bin	3.10432e-05	261
bin	3.11144e-05	296
bin	3.11856e-05	269
bin	3.12568e-05	272
bin	3.1328e-05	267
bin	3.13992e-05	277
bin	3.14704e-05	274
bin	3.15416e-05	286
bin	3.16128e-05	265
bin	3.1684e-05	265
bin	3.17552e-05	272
bin	3.18264e-05	276
bin	3.18976e-05	291
bin	3.19688e-05	291
bin	3.204e-05	268
bin	3.21112e-05	278
bin	3.21824e-05	244
bin	3.22536e-05	238
bin	3.23248e-05	242
bin	3.2396e-05	244
bin	3.24672e-05	228
bin	3.25384e-05	260
bin	3.26096e-05	250
bin	3.26808e-05	289
bin	3.2752e-05	274
bin	3.28232e-05	291
bin	3.28944e-05	271
bin	3.29656e-05	276
bin	3.30368e-05	267
bin	3.3108e-05	277
bin	3.31792e-05	304
bin	3.32504e-05	287
bin	3.33216e-05	281
bin	3.33928e-05	284
bin	3.3464e-05	271
bin	3.35352e-05	278
bin	3.36064e-05	276
bin	3.36776e-05	276
bin	3.37488e-05	254
bin	3.382e-05	294
bin	3.38912e-05	269
bin	3.39624e-05	250
bin	3.40336e-05	259
bin	3.41048e-05	274
bin	3.4176e-05	305
bin	3.42472e-05	282
bin	3.43184e-05	259
bin	3.43896e-05	232
bin	3.44608e-05	257
bin	3.4532e-05	246
bin	3.46032e-05	276
bin	3.46744e-05	272
bin	3.47456e-05	275
bin	3.48168e-05	263
bin	3.4888e-05	263
bin	3.49592e-05	280
bin	3.50304e-05	274
bin	3.51016e-05	272
bin	3.51728e-05	256
bin	3.5244e-05	239
bin	3.53152e-05	247
bin	3.53864e-05	248
bin	3.54576e-05	216
bin	3.55288e-05	239
bin	3.56e-05	5872638
statistic Torus3d_bub.timer 	"Life Times"
field count 6291456
field mean 0.0068095469418129
field stddev 0.0032475862509242
field sum 42841.96496435
field sqrsum 358.08919263793
field min 1.250333333e-06
field max 0.014249839977741
bin	-INF	0
bin	0	0
bin	8.544e-07	65
bin	1.7088e-06	144
bin	2.5632e-06	571
bin	3.4176e-06	1039
bin	4.272e-06	1661
bin	5.1264e-06	1937
bin	5.9808e-06	2056
bin	6.8352e-06	2203
bin	7.6896e-06	2484
bin	8.544e-06	2697
bin	9.3984e-06	2926
bin	1.02528e-05	3144
bin	1.11072e-05	3219
bin	1.19616e-05	3373
bin	1.2816e-05	3402
bin	1.36704e-05	3532
bin	1.45248e-05	3563
bin	1.53792e-05	3611
bin	1.62336e-05	3610
bin	1.7088e-05	3498
bin	1.79424e-05	3661
bin	1.87968e-05	3427
bin	1.96512e-05	3546
bin	2.05056e-05	3652
bin	2.136e-05	3748
bin	2.22144e-05	3849
bin	2.30688e-05	3964
bin	2.39232e-05	4069
bin	2.47776e-05	4171
bin	2.5632e-05	4162
bin	2.64864e-05	4235
bin	2.73408e-05	4240
bin	2.81952e-05	4424
bin	2.90496e-05	4302
bin	2.9904e-05	4253
bin	3.07584e-05	4133
bin	3.16128e-05	4245
bin	3.24672e-05	4208
bin	3.33216e-05	4181
bin	3.4176e-05	4137
bin	3.50304e-05	4084
bin	3.58848e-05	4146
bin	3.67392e-05	4171
bin	3.75936e-05	3998
bin	3.8448e-05	3968
bin	3.93024e-05	3995
bin	4.01568e-05	3854
bin	4.10112e-05	3835
bin	4.18656e-05	3638
bin	4.272e-05	3538
bin	4.35744e-05	3284
bin	4.44288e-05	3163
bin	4.52832e-05	3037
bin	4.61376e-05	2893
bin	4.6992e-05	2790
bin	4.78464e-05	2578
bin	4.87008e-05	2347
bin	4.95552e-05	2179
bin	5.04096e-05	2000
bin	5.1264e-05	1869
bin	5.21184e-05	1758
bin	5.29728e-05	1663
bin	5.38272e-05	1577
bin	5.46816e-05	1537
bin	5.5536e-05	1430
bin	5.63904e-05	1324
bin	5.72448e-05	1349
bin	5.80992e-05	1237
bin	5.89536e-05	1234
bin	5.9808e-05	1209
bin	6.06624e-05	1240
bin	6.15168e-05	1184
bin	6.23712e-05	1217
bin	6.32256e-05	1146
bin	6.408e-05	1129
bin	6.49344e-05	1137
bin	6.57888e-05	1107
bin	6.66432e-05	1061
bin	6.74976e-05	1066
bin	6.8352e-05	1056
bin	6.92064e-05	1073
bin	7.00608e-05	1022
bin	7.09152e-05	996
bin	7.17696e-05	954
bin	7.2624e-05	942
bin	7.34784e-05	959
bin	7.43328e-05	970
bin	7.51872e-05	914
bin	7.60416e-05	1008
bin	7.6896e-05	968
bin	7.77504e-05	995
bin	7.86048e-05	1032
bin	7.94592e-05	931
bin	8.03136e-05	973
bin	8.1168e-05	1011
bin	8.20224e-05	978
bin	8.28768e-05	984
bin	8.37312e-05	944
bin	8.45856e-05	927
bin	8.544e-05	905
bin	8.62944e-05	893
bin	8.71488e-05	866
bin	8.80032e-05	829
bin	8.88576e-05	829
bin	8.9712e-05	843
bin	9.05664e-05	786
bin	9.14208e-05	792
bin	9.22752e-05	788
bin	9.31296e-05	766
bin	9.3984e-05	714
bin	9.48384e-05	656
bin	9.56928e-05	710
bin	9.65472e-05	666
bin	9.74016e-05	662
bin	9.8256e-05	623
bin	9.91104e-05	624
bin	9.99648e-05	626
bin	0.0001008192	622
bin	0.0001016736	641
bin	0.000102528	610
bin	0.0001033824	618
bin	0.0001042368	574
bin	0.0001050912	555
bin	0.0001059456	537
bin	0.0001068	559
bin	0.0001076544	548
bin	0.0001085088	552
bin	0.0001093632	536
bin	0.0001102176	529
bin	0.000111072	551
bin	0.0001119264	550
bin	0.0001127808	599
bin	0.0001136352	584
bin	0.0001144896	606
bin	0.000115344	594
bin	0.0001161984	549
bin	0.0001170528	588
bin	0.0001179072	632
bin	0.0001187616	602
bin	0.000119616	647
bin	0.0001204704	644
bin	0.0001213248	642
bin	0.0001221792	599
bin	0.0001230336	587
bin	0.000123888	654
bin	0.0001247424	616
bin	0.0001255968	608
bin	0.0001264512	597
bin	0.0001273056	610
bin	0.00012816	579
bin	0.0001290144	557
bin	0.0001298688	583
bin	0.0001307232	553
bin	0.0001315776	537
bin	0.000132432	564
bin	0.0001332864	583
bin	0.0001341408	541
bin	0.0001349952	523
bin	0.0001358496	514
bin	0.000136704	478
bin	0.0001375584	432
bin	0.0001384128	430
bin	0.0001392672	442
bin	0.0001401216	408
bin	0.000140976	388
bin	0.0001418304	433
bin	0.0001426848	463
bin	0.0001435392	442
bin	0.0001443936	426
bin	0.000145248	423
bin	0.0001461024	437
bin	0.0001469568	406
bin	0.0001478112	395
bin	0.0001486656	420
bin	0.00014952	397
bin	0.0001503744	410
bin	0.0001512288	401
bin	0.0001520832	406
bin	0.0001529376	402
bin	0.000153792	428
bin	0.0001546464	441
bin	0.0001555008	446
bin	0.0001563552	400
bin	0.0001572096	439
bin	0.000158064	461
bin	0.0001589184	438
bin	0.0001597728	451
bin	0.0001606272	452
bin	0.0001614816	435
bin	0.000162336	441
bin	0.0001631904	458
bin	0.0001640448	499
bin	0.0001648992	463
bin	0.0001657536	471
bin	0.000166608	457
bin	0.0001674624	442
bin	0.0001683168	436
bin	0.0001691712	439
bin	0.0001700256	401
bin	0.00017088	432
bin	0.0001717344	422
bin	0.0001725888	410
bin	0.0001734432	420
bin	0.0001742976	415
bin	0.000175152	385
bin	0.0001760064	409
bin	0.0001768608	443
bin	0.0001777152	363
bin	0.0001785696	375
bin	0.000179424	378
bin	0.0001802784	393
bin	0.0001811328	388
bin	0.0001819872	386
bin	0.0001828416	422
bin	0.000183696	352
bin	0.0001845504	376
bin	0.0001854048	382
bin	0.0001862592	375
bin	0.0001871136	382
bin	0.000187968	384
bin	0.0001888224	382
bin	0.0001896768	367
bin	0.0001905312	358
bin	0.0001913856	416
bin	0.00019224	389
bin	0.0001930944	346
bin	0.0001939488	346
bin	0.0001948032	337
bin	0.0001956576	344
bin	0.000196512	356
bin	0.0001973664	370
bin	0.0001982208	373
bin	0.0001990752	369
bin	0.0001999296	374
bin	0.000200784	376
bin	0.0002016384	369
bin	0.0002024928	366
bin	0.0002033472	345
bin	0.0002042016	381
bin	0.000205056	410
bin	0.0002059104	365
bin	0.0002067648	372
bin	0.0002076192	377
bin	0.0002084736	360
bin	0.000209328	342
bin	0.0002101824	358
bin	0.0002110368	355
bin	0.0002118912	337
bin	0.0002127456	365
bin	0.0002136	417
bin	0.0002144544	375
bin	0.0002153088	340
bin	0.0002161632	374
bin	0.0002170176	406
bin	0.000217872	375
bin	0.0002187264	393
bin	0.0002195808	396
bin	0.0002204352	340
bin	0.0002212896	298
bin	0.000222144	278
bin	0.0002229984	320
bin	0.0002238528	314
bin	0.0002247072	313
bin	0.0002255616	297
bin	0.000226416	283
bin	0.0002272704	273
bin	0.0002281248	253
bin	0.0002289792	292
bin	0.0002298336	276
bin	0.000230688	263
bin	0.0002315424	274
bin	0.0002323968	272
bin	0.0002332512	267
bin	0.0002341056	252
bin	0.00023496	246
bin	0.0002358144	266
bin	0.0002366688	284
bin	0.0002375232	288
bin	0.0002383776	324
bin	0.000239232	325
bin	0.0002400864	317
bin	0.0002409408	342
bin	0.0002417952	345
bin	0.0002426496	324
bin	0.000243504	316
bin	0.0002443584	314
bin	0.0002452128	319
bin	0.0002460672	318
bin	0.0002469216	305
bin	0.000247776	349
bin	0.0002486304	314
bin	0.0002494848	326
bin	0.0002503392	329
bin	0.0002511936	286
bin	0.000252048	319
bin	0.0002529024	295
bin	0.0002537568	291
bin	0.0002546112	302
bin	0.0002554656	267
bin	0.00025632	288
bin	0.0002571744	286
bin	0.0002580288	269
bin	0.0002588832	278
bin	0.0002597376	299
bin	0.000260592	275
bin	0.0002614464	291
bin	0.0002623008	293
bin	0.0002631552	279
bin	0.0002640096	274
bin	0.000264864	276
bin	0.0002657184	274
bin	0.0002665728	286
bin	0.0002674272	306
bin	0.0002682816	315
bin	0.000269136	289
bin	0.0002699904	271
bin	0.0002708448	258
bin	0.0002716992	286
bin	0.0002725536	278
bin	0.000273408	265
bin	0.0002742624	284
bin	0.0002751168	277
bin	0.0002759712	284
bin	0.0002768256	252
bin	0.00027768	237
bin	0.0002785344	244
bin	0.0002793888	213
bin	0.0002802432	213
bin	0.0002810976	239
bin	0.000281952	232
bin	0.0002828064	240
bin	0.0002836608	250
bin	0.0002845152	258
bin	0.0002853696	285
bin	0.000286224	257
bin	0.0002870784	253
bin	0.0002879328	303
bin	0.0002887872	281
bin	0.0002896416	294
bin	0.000290496	318
bin	0.0002913504	288
bin	0.0002922048	296
bin	0.0002930592	305
bin	0.0002939136	322
bin	0.000294768	320
bin	0.0002956224	320
bin	0.0002964768	344
bin	0.0002973312	342
bin	0.0002981856	328
bin	0.00029904	306
bin	0.0002998944	291
bin	0.0003007488	277
bin	0.0003016032	290
bin	0.0003024576	265
bin	0.000303312	256
bin	0.0003041664	240
bin	0.0003050208	248
bin	0.0003058752	249
bin	0.0003067296	202
bin	0.000307584	204
bin	0.0003084384	209
bin	0.0003092928	214
bin	0.0003101472	199
bin	0.0003110016	203
bin	0.000311856	217
bin	0.0003127104	195
bin	0.0003135648	210
bin	0.0003144192	225
bin	0.0003152736	218
bin	0.000316128	228
bin	0.0003169824	227
bin	0.0003178368	222
bin	0.0003186912	230
bin	0.0003195456	255
bin	0.0003204	248
bin	0.0003212544	253
bin	0.0003221088	249
bin	0.0003229632	251
bin	0.0003238176	268
bin	0.000324672	284
bin	0.0003255264	295
bin	0.0003263808	287
bin	0.0003272352	329
bin	0.0003280896	333
bin	0.000328944	295
bin	0.0003297984	322
bin	0.0003306528	312
bin	0.0003315072	294
bin	0.0003323616	283
bin	0.000333216	269
bin	0.0003340704	283
bin	0.0003349248	276
bin	0.0003357792	236
bin	0.0003366336	263
bin	0.000337488	260
bin	0.0003383424	253
bin	0.0003391968	256
bin	0.0003400512	257
bin	0.0003409056	259
bin	0.00034176	268
bin	0.0003426144	227
bin	0.0003434688	226
bin	0.0003443232	229
bin	0.0003451776	208
bin	0.000346032	220
bin	0.0003468864	208
bin	0.0003477408	232
bin	0.0003485952	213
bin	0.0003494496	228
bin	0.000350304	227
bin	0.0003511584	207
bin	0.0003520128	197
bin	0.0003528672	199
bin	0.0003537216	197
bin	0.000354576	211
bin	0.0003554304	201
bin	0.0003562848	225
bin	0.0003571392	216
bin	0.0003579936	213
bin	0.000358848	229
bin	0.0003597024	227
bin	0.0003605568	197
bin	0.0003614112	185
bin	0.0003622656	197
bin	0.00036312	244
bin	0.0003639744	263
bin	0.0003648288	262
bin	0.0003656832	272
bin	0.0003665376	255
bin	0.000367392	241
bin	0.0003682464	263
bin	0.0003691008	266
bin	0.0003699552	277
bin	0.0003708096	246
bin	0.000371664	258
bin	0.0003725184	235
bin	0.0003733728	232
bin	0.0003742272	230
bin	0.0003750816	232
bin	0.000375936	226
bin	0.0003767904	225
bin	0.0003776448	223
bin	0.0003784992	205
bin	0.0003793536	202
bin	0.000380208	218
bin	0.0003810624	210
bin	0.0003819168	234
bin	0.0003827712	236
bin	0.0003836256	221
bin	0.00038448	232
bin	0.0003853344	216
bin	0.0003861888	234
bin	0.0003870432	232
bin	0.0003878976	261
bin	0.000388752	227
bin	0.0003896064	231
bin	0.0003904608	217
bin	0.0003913152	240
bin	0.0003921696	208
bin	0.000393024	224
bin	0.0003938784	197
bin	0.0003947328	190
bin	0.0003955872	175
bin	0.0003964416	183
bin	0.000397296	181
bin	0.0003981504	179
bin	0.0003990048	181
bin	0.0003998592	159
bin	0.0004007136	182
bin	0.000401568	169
bin	0.0004024224	186
bin	0.0004032768	198
bin	0.0004041312	177
bin	0.0004049856	167
bin	0.00040584	159
bin	0.0004066944	161
bin	0.0004075488	174
bin	0.0004084032	170
bin	0.0004092576	185
bin	0.000410112	185
bin	0.0004109664	203
bin	0.0004118208	211
bin	0.0004126752	212
bin	0.0004135296	235
bin	0.000414384	221
bin	0.0004152384	201
bin	0.0004160928	240
bin	0.0004169472	215
bin	0.0004178016	224
bin	0.000418656	210
bin	0.0004195104	188
bin	0.0004203648	213
bin	0.0004212192	203
bin	0.0004220736	197
bin	0.000422928	206
bin	0.0004237824	188
bin	0.0004246368	198
bin	0.0004254912	197
bin	0.0004263456	181
bin	0.0004272	5914371
