version 2
run Bitcomplement-24-20120709-20:16:29-24896
attr alg 0
attr buf 8
attr configname Bitcomplement
attr datetime 20120709-20:16:29
attr delta 0.2
attr experiment Bitcomplement
attr ext false
attr inifile altro.ini
attr iterationvars "$buf=8, $ext=false, $ofedge=1, $delta=0.2, $alg=0"
attr iterationvars2 "$buf=8, $ext=false, $ofedge=1, $delta=0.2, $alg=0, $repetition=0"
attr measurement "$buf=8, $ext=false, $ofedge=1, $delta=0.2, $alg=0"
attr network Torus3d_bub
attr ofedge 1
attr processid 24896
attr repetition 0
attr replication #0
attr resultdir altro-results
attr runnumber 24
attr seedset 24

scalar . 	alg 	0
scalar . 	buf 	8
scalar . 	delta 	0.2
scalar . 	ofedge 	1
scalar Torus3d_bub.timer 	#endTime 	0.003917089327381
scalar Torus3d_bub.timer 	#totalHops 	75497472
scalar Torus3d_bub.timer 	#totalPacks 	6291456
scalar Torus3d_bub.timer 	#totalDerouted 	0
scalar Torus3d_bub.timer 	#totalOutFlanked 	0
scalar Torus3d_bub.timer 	#totalCQRed 	0
scalar Torus3d_bub.timer 	#LB 	0.000786432
scalar Torus3d_bub.timer 	#ratio 	0.20076948322386
statistic Torus3d_bub.timer 	"Hop Times"
field count 6291456
field mean 4.660131854753e-06
field stddev 4.8199191239633e-06
field sum 29.319014518377
field sqrsum 0.00028279116758881
field min 4.16777777e-07
field max 3.5668333269e-05
bin	-INF	0
bin	0	0
bin	7.12e-08	0
bin	1.424e-07	0
bin	2.136e-07	0
bin	2.848e-07	0
bin	3.56e-07	16
bin	4.272e-07	1616
bin	4.984e-07	28850
bin	5.696e-07	58008
bin	6.408e-07	61694
bin	7.12e-07	70524
bin	7.832e-07	71314
bin	8.544e-07	84684
bin	9.256e-07	94152
bin	9.968e-07	97602
bin	1.068e-06	107338
bin	1.1392e-06	124078
bin	1.2104e-06	125220
bin	1.2816e-06	126348
bin	1.3528e-06	120152
bin	1.424e-06	113780
bin	1.4952e-06	98808
bin	1.5664e-06	92722
bin	1.6376e-06	88464
bin	1.7088e-06	89024
bin	1.78e-06	87512
bin	1.8512e-06	86740
bin	1.9224e-06	90950
bin	1.9936e-06	92070
bin	2.0648e-06	87004
bin	2.136e-06	83248
bin	2.2072e-06	82888
bin	2.2784e-06	79692
bin	2.3496e-06	75786
bin	2.4208e-06	71196
bin	2.492e-06	69668
bin	2.5632e-06	67820
bin	2.6344e-06	64846
bin	2.7056e-06	63488
bin	2.7768e-06	63074
bin	2.848e-06	63992
bin	2.9192e-06	62222
bin	2.9904e-06	61024
bin	3.0616e-06	62188
bin	3.1328e-06	68024
bin	3.204e-06	62388
bin	3.2752e-06	60597
bin	3.3464e-06	60765
bin	3.4176e-06	60448
bin	3.4888e-06	55300
bin	3.56e-06	55460
bin	3.6312e-06	53068
bin	3.7024e-06	55752
bin	3.7736e-06	52074
bin	3.8448e-06	52994
bin	3.916e-06	52480
bin	3.9872e-06	46478
bin	4.0584e-06	50448
bin	4.1296e-06	47948
bin	4.2008e-06	49410
bin	4.272e-06	48708
bin	4.3432e-06	44690
bin	4.4144e-06	45788
bin	4.4856e-06	42392
bin	4.5568e-06	39676
bin	4.628e-06	40178
bin	4.6992e-06	37180
bin	4.7704e-06	40182
bin	4.8416e-06	35156
bin	4.9128e-06	32874
bin	4.984e-06	33086
bin	5.0552e-06	33792
bin	5.1264e-06	34892
bin	5.1976e-06	35548
bin	5.2688e-06	37036
bin	5.34e-06	37930
bin	5.4112e-06	37280
bin	5.4824e-06	35774
bin	5.5536e-06	38532
bin	5.6248e-06	37354
bin	5.696e-06	33740
bin	5.7672e-06	33650
bin	5.8384e-06	30674
bin	5.9096e-06	30808
bin	5.9808e-06	28672
bin	6.052e-06	29044
bin	6.1232e-06	25204
bin	6.1944e-06	28582
bin	6.2656e-06	23748
bin	6.3368e-06	24892
bin	6.408e-06	22530
bin	6.4792e-06	21304
bin	6.5504e-06	21332
bin	6.6216e-06	19642
bin	6.6928e-06	19564
bin	6.764e-06	18432
bin	6.8352e-06	17984
bin	6.9064e-06	16590
bin	6.9776e-06	17100
bin	7.0488e-06	15108
bin	7.12e-06	12682
bin	7.1912e-06	15366
bin	7.2624e-06	12590
bin	7.3336e-06	12996
bin	7.4048e-06	13006
bin	7.476e-06	13846
bin	7.5472e-06	11860
bin	7.6184e-06	12446
bin	7.6896e-06	12176
bin	7.7608e-06	14456
bin	7.832e-06	12104
bin	7.9032e-06	13598
bin	7.9744e-06	13532
bin	8.0456e-06	13022
bin	8.1168e-06	15104
bin	8.188e-06	12292
bin	8.2592e-06	13162
bin	8.3304e-06	12482
bin	8.4016e-06	11866
bin	8.4728e-06	12578
bin	8.544e-06	12472
bin	8.6152e-06	13880
bin	8.6864e-06	13854
bin	8.7576e-06	12598
bin	8.8288e-06	14222
bin	8.9e-06	12806
bin	8.9712e-06	12764
bin	9.0424e-06	14402
bin	9.1136e-06	15180
bin	9.1848e-06	13270
bin	9.256e-06	14410
bin	9.3272e-06	15550
bin	9.3984e-06	13810
bin	9.4696e-06	15844
bin	9.5408e-06	13144
bin	9.612e-06	13062
bin	9.6832e-06	12266
bin	9.7544e-06	13036
bin	9.8256e-06	13060
bin	9.8968e-06	12294
bin	9.968e-06	10304
bin	1.00392e-05	10028
bin	1.01104e-05	11590
bin	1.01816e-05	10788
bin	1.02528e-05	9918
bin	1.0324e-05	9468
bin	1.03952e-05	9326
bin	1.04664e-05	7330
bin	1.05376e-05	8148
bin	1.06088e-05	7444
bin	1.068e-05	7388
bin	1.07512e-05	6798
bin	1.08224e-05	6540
bin	1.08936e-05	7040
bin	1.09648e-05	5804
bin	1.1036e-05	5826
bin	1.11072e-05	5258
bin	1.11784e-05	5014
bin	1.12496e-05	4174
bin	1.13208e-05	4618
bin	1.1392e-05	3522
bin	1.14632e-05	3302
bin	1.15344e-05	3364
bin	1.16056e-05	3532
bin	1.16768e-05	3194
bin	1.1748e-05	3238
bin	1.18192e-05	2420
bin	1.18904e-05	2938
bin	1.19616e-05	2400
bin	1.20328e-05	2332
bin	1.2104e-05	2384
bin	1.21752e-05	2524
bin	1.22464e-05	2432
bin	1.23176e-05	2154
bin	1.23888e-05	2358
bin	1.246e-05	2100
bin	1.25312e-05	3000
bin	1.26024e-05	2212
bin	1.26736e-05	1938
bin	1.27448e-05	2636
bin	1.2816e-05	2216
bin	1.28872e-05	1816
bin	1.29584e-05	2376
bin	1.30296e-05	1424
bin	1.31008e-05	1458
bin	1.3172e-05	1326
bin	1.32432e-05	1432
bin	1.33144e-05	1790
bin	1.33856e-05	1708
bin	1.34568e-05	1250
bin	1.3528e-05	1448
bin	1.35992e-05	1008
bin	1.36704e-05	910
bin	1.37416e-05	1682
bin	1.38128e-05	736
bin	1.3884e-05	1456
bin	1.39552e-05	1408
bin	1.40264e-05	1250
bin	1.40976e-05	2132
bin	1.41688e-05	1388
bin	1.424e-05	1716
bin	1.43112e-05	2350
bin	1.43824e-05	1562
bin	1.44536e-05	1796
bin	1.45248e-05	3260
bin	1.4596e-05	2858
bin	1.46672e-05	3946
bin	1.47384e-05	2564
bin	1.48096e-05	2098
bin	1.48808e-05	3322
bin	1.4952e-05	2710
bin	1.50232e-05	3286
bin	1.50944e-05	4012
bin	1.51656e-05	2228
bin	1.52368e-05	3098
bin	1.5308e-05	3818
bin	1.53792e-05	2752
bin	1.54504e-05	4606
bin	1.55216e-05	3892
bin	1.55928e-05	2930
bin	1.5664e-05	4446
bin	1.57352e-05	3702
bin	1.58064e-05	3342
bin	1.58776e-05	4968
bin	1.59488e-05	3436
bin	1.602e-05	3976
bin	1.60912e-05	6440
bin	1.61624e-05	4130
bin	1.62336e-05	5258
bin	1.63048e-05	4690
bin	1.6376e-05	4000
bin	1.64472e-05	5348
bin	1.65184e-05	4150
bin	1.65896e-05	4446
bin	1.66608e-05	4788
bin	1.6732e-05	3794
bin	1.68032e-05	4652
bin	1.68744e-05	4418
bin	1.69456e-05	4264
bin	1.70168e-05	4910
bin	1.7088e-05	4100
bin	1.71592e-05	3414
bin	1.72304e-05	4186
bin	1.73016e-05	3564
bin	1.73728e-05	3748
bin	1.7444e-05	5044
bin	1.75152e-05	3088
bin	1.75864e-05	4852
bin	1.76576e-05	4712
bin	1.77288e-05	3542
bin	1.78e-05	4134
bin	1.78712e-05	3380
bin	1.79424e-05	3062
bin	1.80136e-05	3790
bin	1.80848e-05	3818
bin	1.8156e-05	2894
bin	1.82272e-05	2980
bin	1.82984e-05	2040
bin	1.83696e-05	1634
bin	1.84408e-05	2112
bin	1.8512e-05	1282
bin	1.85832e-05	898
bin	1.86544e-05	1022
bin	1.87256e-05	852
bin	1.87968e-05	526
bin	1.8868e-05	638
bin	1.89392e-05	844
bin	1.90104e-05	630
bin	1.90816e-05	416
bin	1.91528e-05	338
bin	1.9224e-05	1008
bin	1.92952e-05	604
bin	1.93664e-05	450
bin	1.94376e-05	776
bin	1.95088e-05	356
bin	1.958e-05	252
bin	1.96512e-05	992
bin	1.97224e-05	504
bin	1.97936e-05	836
bin	1.98648e-05	416
bin	1.9936e-05	440
bin	2.00072e-05	738
bin	2.00784e-05	474
bin	2.01496e-05	550
bin	2.02208e-05	408
bin	2.0292e-05	606
bin	2.03632e-05	838
bin	2.04344e-05	846
bin	2.05056e-05	762
bin	2.05768e-05	1122
bin	2.0648e-05	382
bin	2.07192e-05	982
bin	2.07904e-05	746
bin	2.08616e-05	398
bin	2.09328e-05	488
bin	2.1004e-05	594
bin	2.10752e-05	238
bin	2.11464e-05	304
bin	2.12176e-05	152
bin	2.12888e-05	64
bin	2.136e-05	0
bin	2.14312e-05	0
bin	2.15024e-05	0
bin	2.15736e-05	0
bin	2.16448e-05	0
bin	2.1716e-05	0
bin	2.17872e-05	0
bin	2.18584e-05	0
bin	2.19296e-05	2
bin	2.20008e-05	0
bin	2.2072e-05	0
bin	2.21432e-05	0
bin	2.22144e-05	0
bin	2.22856e-05	0
bin	2.23568e-05	0
bin	2.2428e-05	0
bin	2.24992e-05	2
bin	2.25704e-05	60
bin	2.26416e-05	0
bin	2.27128e-05	0
bin	2.2784e-05	0
bin	2.28552e-05	0
bin	2.29264e-05	0
bin	2.29976e-05	0
bin	2.30688e-05	0
bin	2.314e-05	0
bin	2.32112e-05	0
bin	2.32824e-05	0
bin	2.33536e-05	0
bin	2.34248e-05	0
bin	2.3496e-05	0
bin	2.35672e-05	0
bin	2.36384e-05	0
bin	2.37096e-05	0
bin	2.37808e-05	0
bin	2.3852e-05	0
bin	2.39232e-05	0
bin	2.39944e-05	0
bin	2.40656e-05	0
bin	2.41368e-05	0
bin	2.4208e-05	0
bin	2.42792e-05	0
bin	2.43504e-05	0
bin	2.44216e-05	0
bin	2.44928e-05	0
bin	2.4564e-05	0
bin	2.46352e-05	0
bin	2.47064e-05	0
bin	2.47776e-05	0
bin	2.48488e-05	2
bin	2.492e-05	0
bin	2.49912e-05	0
bin	2.50624e-05	0
bin	2.51336e-05	2
bin	2.52048e-05	0
bin	2.5276e-05	0
bin	2.53472e-05	0
bin	2.54184e-05	0
bin	2.54896e-05	0
bin	2.55608e-05	0
bin	2.5632e-05	0
bin	2.57032e-05	0
bin	2.57744e-05	0
bin	2.58456e-05	0
bin	2.59168e-05	0
bin	2.5988e-05	0
bin	2.60592e-05	0
bin	2.61304e-05	0
bin	2.62016e-05	0
bin	2.62728e-05	2
bin	2.6344e-05	0
bin	2.64152e-05	0
bin	2.64864e-05	0
bin	2.65576e-05	0
bin	2.66288e-05	0
bin	2.67e-05	0
bin	2.67712e-05	0
bin	2.68424e-05	0
bin	2.69136e-05	0
bin	2.69848e-05	0
bin	2.7056e-05	0
bin	2.71272e-05	0
bin	2.71984e-05	0
bin	2.72696e-05	0
bin	2.73408e-05	0
bin	2.7412e-05	0
bin	2.74832e-05	0
bin	2.75544e-05	0
bin	2.76256e-05	0
bin	2.76968e-05	34
bin	2.7768e-05	0
bin	2.78392e-05	2
bin	2.79104e-05	0
bin	2.79816e-05	38
bin	2.80528e-05	122
bin	2.8124e-05	2
bin	2.81952e-05	32
bin	2.82664e-05	104
bin	2.83376e-05	158
bin	2.84088e-05	190
bin	2.848e-05	190
bin	2.85512e-05	6
bin	2.86224e-05	198
bin	2.86936e-05	266
bin	2.87648e-05	404
bin	2.8836e-05	496
bin	2.89072e-05	10
bin	2.89784e-05	382
bin	2.90496e-05	310
bin	2.91208e-05	638
bin	2.9192e-05	172
bin	2.92632e-05	276
bin	2.93344e-05	14
bin	2.94056e-05	472
bin	2.94768e-05	394
bin	2.9548e-05	610
bin	2.96192e-05	690
bin	2.96904e-05	18
bin	2.97616e-05	554
bin	2.98328e-05	584
bin	2.9904e-05	386
bin	2.99752e-05	520
bin	3.00464e-05	532
bin	3.01176e-05	20
bin	3.01888e-05	724
bin	3.026e-05	960
bin	3.03312e-05	804
bin	3.04024e-05	608
bin	3.04736e-05	36
bin	3.05448e-05	1102
bin	3.0616e-05	896
bin	3.06872e-05	886
bin	3.07584e-05	780
bin	3.08296e-05	1148
bin	3.09008e-05	40
bin	3.0972e-05	1210
bin	3.10432e-05	950
bin	3.11144e-05	724
bin	3.11856e-05	1112
bin	3.12568e-05	110
bin	3.1328e-05	1554
bin	3.13992e-05	1374
bin	3.14704e-05	818
bin	3.15416e-05	916
bin	3.16128e-05	1326
bin	3.1684e-05	100
bin	3.17552e-05	1376
bin	3.18264e-05	1156
bin	3.18976e-05	1084
bin	3.19688e-05	818
bin	3.204e-05	40
bin	3.21112e-05	1324
bin	3.21824e-05	1380
bin	3.22536e-05	1480
bin	3.23248e-05	1164
bin	3.2396e-05	1544
bin	3.24672e-05	102
bin	3.25384e-05	1328
bin	3.26096e-05	900
bin	3.26808e-05	780
bin	3.2752e-05	1062
bin	3.28232e-05	140
bin	3.28944e-05	1326
bin	3.29656e-05	1172
bin	3.30368e-05	828
bin	3.3108e-05	874
bin	3.31792e-05	1454
bin	3.32504e-05	200
bin	3.33216e-05	1494
bin	3.33928e-05	976
bin	3.3464e-05	1030
bin	3.35352e-05	1158
bin	3.36064e-05	310
bin	3.36776e-05	1352
bin	3.37488e-05	1390
bin	3.382e-05	1314
bin	3.38912e-05	1130
bin	3.39624e-05	1262
bin	3.40336e-05	604
bin	3.41048e-05	1486
bin	3.4176e-05	1654
bin	3.42472e-05	1310
bin	3.43184e-05	1380
bin	3.43896e-05	566
bin	3.44608e-05	1528
bin	3.4532e-05	1234
bin	3.46032e-05	1530
bin	3.46744e-05	1114
bin	3.47456e-05	1058
bin	3.48168e-05	496
bin	3.4888e-05	1060
bin	3.49592e-05	562
bin	3.50304e-05	704
bin	3.51016e-05	458
bin	3.51728e-05	702
bin	3.5244e-05	354
bin	3.53152e-05	168
bin	3.53864e-05	190
bin	3.54576e-05	128
bin	3.55288e-05	124
bin	3.56e-05	28
statistic Torus3d_bub.timer 	"Life Times"
field count 6291456
field mean 4.3588493397914e-05
field stddev 2.3017888939819e-05
field sum 274.23508831927
field sqrsum 0.01528685322819
field min 1.250333333e-06
field max 0.000108052333141
bin	-INF	0
bin	0	0
bin	8.544e-07	560
bin	1.7088e-06	3304
bin	2.5632e-06	6312
bin	3.4176e-06	12812
bin	4.272e-06	19964
bin	5.1264e-06	26180
bin	5.9808e-06	29124
bin	6.8352e-06	38326
bin	7.6896e-06	45558
bin	8.544e-06	47324
bin	9.3984e-06	58946
bin	1.02528e-05	66172
bin	1.11072e-05	74858
bin	1.19616e-05	77510
bin	1.2816e-05	81934
bin	1.36704e-05	82508
bin	1.45248e-05	84668
bin	1.53792e-05	82660
bin	1.62336e-05	80790
bin	1.7088e-05	78178
bin	1.79424e-05	79202
bin	1.87968e-05	75556
bin	1.96512e-05	75298
bin	2.05056e-05	74682
bin	2.136e-05	68992
bin	2.22144e-05	72018
bin	2.30688e-05	70182
bin	2.39232e-05	67302
bin	2.47776e-05	70848
bin	2.5632e-05	73170
bin	2.64864e-05	74686
bin	2.73408e-05	77958
bin	2.81952e-05	75642
bin	2.90496e-05	78978
bin	2.9904e-05	77456
bin	3.07584e-05	76154
bin	3.16128e-05	79484
bin	3.24672e-05	73140
bin	3.33216e-05	76844
bin	3.4176e-05	78322
bin	3.50304e-05	78702
bin	3.58848e-05	76872
bin	3.67392e-05	82696
bin	3.75936e-05	83476
bin	3.8448e-05	86118
bin	3.93024e-05	86512
bin	4.01568e-05	85358
bin	4.10112e-05	84852
bin	4.18656e-05	81998
bin	4.272e-05	79606
bin	4.35744e-05	76004
bin	4.44288e-05	75206
bin	4.52832e-05	73328
bin	4.61376e-05	74100
bin	4.6992e-05	79140
bin	4.78464e-05	77820
bin	4.87008e-05	72130
bin	4.95552e-05	78922
bin	5.04096e-05	79030
bin	5.1264e-05	74826
bin	5.21184e-05	72024
bin	5.29728e-05	71918
bin	5.38272e-05	67258
bin	5.46816e-05	69478
bin	5.5536e-05	70687
bin	5.63904e-05	64687
bin	5.72448e-05	67286
bin	5.80992e-05	66544
bin	5.89536e-05	68958
bin	5.9808e-05	63468
bin	6.06624e-05	64176
bin	6.15168e-05	63982
bin	6.23712e-05	62550
bin	6.32256e-05	59706
bin	6.408e-05	56590
bin	6.49344e-05	57520
bin	6.57888e-05	57218
bin	6.66432e-05	54354
bin	6.74976e-05	51460
bin	6.8352e-05	48908
bin	6.92064e-05	48588
bin	7.00608e-05	47218
bin	7.09152e-05	47538
bin	7.17696e-05	46518
bin	7.2624e-05	47038
bin	7.34784e-05	42182
bin	7.43328e-05	38644
bin	7.51872e-05	37792
bin	7.60416e-05	33168
bin	7.6896e-05	32952
bin	7.77504e-05	31766
bin	7.86048e-05	28054
bin	7.94592e-05	27654
bin	8.03136e-05	27284
bin	8.1168e-05	25166
bin	8.20224e-05	24360
bin	8.28768e-05	21224
bin	8.37312e-05	21088
bin	8.45856e-05	21244
bin	8.544e-05	21640
bin	8.62944e-05	19340
bin	8.71488e-05	22188
bin	8.80032e-05	23176
bin	8.88576e-05	22566
bin	8.9712e-05	19408
bin	9.05664e-05	19048
bin	9.14208e-05	15516
bin	9.22752e-05	12082
bin	9.31296e-05	11048
bin	9.3984e-05	10394
bin	9.48384e-05	10000
bin	9.56928e-05	8038
bin	9.65472e-05	9296
bin	9.74016e-05	6306
bin	9.8256e-05	8028
bin	9.91104e-05	6760
bin	9.99648e-05	8342
bin	0.0001008192	8154
bin	0.0001016736	9396
bin	0.000102528	9098
bin	0.0001033824	9550
bin	0.0001042368	6368
bin	0.0001050912	4944
bin	0.0001059456	1782
bin	0.0001068	288
bin	0.0001076544	152
bin	0.0001085088	0
bin	0.0001093632	0
bin	0.0001102176	0
bin	0.000111072	0
bin	0.0001119264	0
bin	0.0001127808	0
bin	0.0001136352	0
bin	0.0001144896	0
bin	0.000115344	0
bin	0.0001161984	0
bin	0.0001170528	0
bin	0.0001179072	0
bin	0.0001187616	0
bin	0.000119616	0
bin	0.0001204704	0
bin	0.0001213248	0
bin	0.0001221792	0
bin	0.0001230336	0
bin	0.000123888	0
bin	0.0001247424	0
bin	0.0001255968	0
bin	0.0001264512	0
bin	0.0001273056	0
bin	0.00012816	0
bin	0.0001290144	0
bin	0.0001298688	0
bin	0.0001307232	0
bin	0.0001315776	0
bin	0.000132432	0
bin	0.0001332864	0
bin	0.0001341408	0
bin	0.0001349952	0
bin	0.0001358496	0
bin	0.000136704	0
bin	0.0001375584	0
bin	0.0001384128	0
bin	0.0001392672	0
bin	0.0001401216	0
bin	0.000140976	0
bin	0.0001418304	0
bin	0.0001426848	0
bin	0.0001435392	0
bin	0.0001443936	0
bin	0.000145248	0
bin	0.0001461024	0
bin	0.0001469568	0
bin	0.0001478112	0
bin	0.0001486656	0
bin	0.00014952	0
bin	0.0001503744	0
bin	0.0001512288	0
bin	0.0001520832	0
bin	0.0001529376	0
bin	0.000153792	0
bin	0.0001546464	0
bin	0.0001555008	0
bin	0.0001563552	0
bin	0.0001572096	0
bin	0.000158064	0
bin	0.0001589184	0
bin	0.0001597728	0
bin	0.0001606272	0
bin	0.0001614816	0
bin	0.000162336	0
bin	0.0001631904	0
bin	0.0001640448	0
bin	0.0001648992	0
bin	0.0001657536	0
bin	0.000166608	0
bin	0.0001674624	0
bin	0.0001683168	0
bin	0.0001691712	0
bin	0.0001700256	0
bin	0.00017088	0
bin	0.0001717344	0
bin	0.0001725888	0
bin	0.0001734432	0
bin	0.0001742976	0
bin	0.000175152	0
bin	0.0001760064	0
bin	0.0001768608	0
bin	0.0001777152	0
bin	0.0001785696	0
bin	0.000179424	0
bin	0.0001802784	0
bin	0.0001811328	0
bin	0.0001819872	0
bin	0.0001828416	0
bin	0.000183696	0
bin	0.0001845504	0
bin	0.0001854048	0
bin	0.0001862592	0
bin	0.0001871136	0
bin	0.000187968	0
bin	0.0001888224	0
bin	0.0001896768	0
bin	0.0001905312	0
bin	0.0001913856	0
bin	0.00019224	0
bin	0.0001930944	0
bin	0.0001939488	0
bin	0.0001948032	0
bin	0.0001956576	0
bin	0.000196512	0
bin	0.0001973664	0
bin	0.0001982208	0
bin	0.0001990752	0
bin	0.0001999296	0
bin	0.000200784	0
bin	0.0002016384	0
bin	0.0002024928	0
bin	0.0002033472	0
bin	0.0002042016	0
bin	0.000205056	0
bin	0.0002059104	0
bin	0.0002067648	0
bin	0.0002076192	0
bin	0.0002084736	0
bin	0.000209328	0
bin	0.0002101824	0
bin	0.0002110368	0
bin	0.0002118912	0
bin	0.0002127456	0
bin	0.0002136	0
bin	0.0002144544	0
bin	0.0002153088	0
bin	0.0002161632	0
bin	0.0002170176	0
bin	0.000217872	0
bin	0.0002187264	0
bin	0.0002195808	0
bin	0.0002204352	0
bin	0.0002212896	0
bin	0.000222144	0
bin	0.0002229984	0
bin	0.0002238528	0
bin	0.0002247072	0
bin	0.0002255616	0
bin	0.000226416	0
bin	0.0002272704	0
bin	0.0002281248	0
bin	0.0002289792	0
bin	0.0002298336	0
bin	0.000230688	0
bin	0.0002315424	0
bin	0.0002323968	0
bin	0.0002332512	0
bin	0.0002341056	0
bin	0.00023496	0
bin	0.0002358144	0
bin	0.0002366688	0
bin	0.0002375232	0
bin	0.0002383776	0
bin	0.000239232	0
bin	0.0002400864	0
bin	0.0002409408	0
bin	0.0002417952	0
bin	0.0002426496	0
bin	0.000243504	0
bin	0.0002443584	0
bin	0.0002452128	0
bin	0.0002460672	0
bin	0.0002469216	0
bin	0.000247776	0
bin	0.0002486304	0
bin	0.0002494848	0
bin	0.0002503392	0
bin	0.0002511936	0
bin	0.000252048	0
bin	0.0002529024	0
bin	0.0002537568	0
bin	0.0002546112	0
bin	0.0002554656	0
bin	0.00025632	0
bin	0.0002571744	0
bin	0.0002580288	0
bin	0.0002588832	0
bin	0.0002597376	0
bin	0.000260592	0
bin	0.0002614464	0
bin	0.0002623008	0
bin	0.0002631552	0
bin	0.0002640096	0
bin	0.000264864	0
bin	0.0002657184	0
bin	0.0002665728	0
bin	0.0002674272	0
bin	0.0002682816	0
bin	0.000269136	0
bin	0.0002699904	0
bin	0.0002708448	0
bin	0.0002716992	0
bin	0.0002725536	0
bin	0.000273408	0
bin	0.0002742624	0
bin	0.0002751168	0
bin	0.0002759712	0
bin	0.0002768256	0
bin	0.00027768	0
bin	0.0002785344	0
bin	0.0002793888	0
bin	0.0002802432	0
bin	0.0002810976	0
bin	0.000281952	0
bin	0.0002828064	0
bin	0.0002836608	0
bin	0.0002845152	0
bin	0.0002853696	0
bin	0.000286224	0
bin	0.0002870784	0
bin	0.0002879328	0
bin	0.0002887872	0
bin	0.0002896416	0
bin	0.000290496	0
bin	0.0002913504	0
bin	0.0002922048	0
bin	0.0002930592	0
bin	0.0002939136	0
bin	0.000294768	0
bin	0.0002956224	0
bin	0.0002964768	0
bin	0.0002973312	0
bin	0.0002981856	0
bin	0.00029904	0
bin	0.0002998944	0
bin	0.0003007488	0
bin	0.0003016032	0
bin	0.0003024576	0
bin	0.000303312	0
bin	0.0003041664	0
bin	0.0003050208	0
bin	0.0003058752	0
bin	0.0003067296	0
bin	0.000307584	0
bin	0.0003084384	0
bin	0.0003092928	0
bin	0.0003101472	0
bin	0.0003110016	0
bin	0.000311856	0
bin	0.0003127104	0
bin	0.0003135648	0
bin	0.0003144192	0
bin	0.0003152736	0
bin	0.000316128	0
bin	0.0003169824	0
bin	0.0003178368	0
bin	0.0003186912	0
bin	0.0003195456	0
bin	0.0003204	0
bin	0.0003212544	0
bin	0.0003221088	0
bin	0.0003229632	0
bin	0.0003238176	0
bin	0.000324672	0
bin	0.0003255264	0
bin	0.0003263808	0
bin	0.0003272352	0
bin	0.0003280896	0
bin	0.000328944	0
bin	0.0003297984	0
bin	0.0003306528	0
bin	0.0003315072	0
bin	0.0003323616	0
bin	0.000333216	0
bin	0.0003340704	0
bin	0.0003349248	0
bin	0.0003357792	0
bin	0.0003366336	0
bin	0.000337488	0
bin	0.0003383424	0
bin	0.0003391968	0
bin	0.0003400512	0
bin	0.0003409056	0
bin	0.00034176	0
bin	0.0003426144	0
bin	0.0003434688	0
bin	0.0003443232	0
bin	0.0003451776	0
bin	0.000346032	0
bin	0.0003468864	0
bin	0.0003477408	0
bin	0.0003485952	0
bin	0.0003494496	0
bin	0.000350304	0
bin	0.0003511584	0
bin	0.0003520128	0
bin	0.0003528672	0
bin	0.0003537216	0
bin	0.000354576	0
bin	0.0003554304	0
bin	0.0003562848	0
bin	0.0003571392	0
bin	0.0003579936	0
bin	0.000358848	0
bin	0.0003597024	0
bin	0.0003605568	0
bin	0.0003614112	0
bin	0.0003622656	0
bin	0.00036312	0
bin	0.0003639744	0
bin	0.0003648288	0
bin	0.0003656832	0
bin	0.0003665376	0
bin	0.000367392	0
bin	0.0003682464	0
bin	0.0003691008	0
bin	0.0003699552	0
bin	0.0003708096	0
bin	0.000371664	0
bin	0.0003725184	0
bin	0.0003733728	0
bin	0.0003742272	0
bin	0.0003750816	0
bin	0.000375936	0
bin	0.0003767904	0
bin	0.0003776448	0
bin	0.0003784992	0
bin	0.0003793536	0
bin	0.000380208	0
bin	0.0003810624	0
bin	0.0003819168	0
bin	0.0003827712	0
bin	0.0003836256	0
bin	0.00038448	0
bin	0.0003853344	0
bin	0.0003861888	0
bin	0.0003870432	0
bin	0.0003878976	0
bin	0.000388752	0
bin	0.0003896064	0
bin	0.0003904608	0
bin	0.0003913152	0
bin	0.0003921696	0
bin	0.000393024	0
bin	0.0003938784	0
bin	0.0003947328	0
bin	0.0003955872	0
bin	0.0003964416	0
bin	0.000397296	0
bin	0.0003981504	0
bin	0.0003990048	0
bin	0.0003998592	0
bin	0.0004007136	0
bin	0.000401568	0
bin	0.0004024224	0
bin	0.0004032768	0
bin	0.0004041312	0
bin	0.0004049856	0
bin	0.00040584	0
bin	0.0004066944	0
bin	0.0004075488	0
bin	0.0004084032	0
bin	0.0004092576	0
bin	0.000410112	0
bin	0.0004109664	0
bin	0.0004118208	0
bin	0.0004126752	0
bin	0.0004135296	0
bin	0.000414384	0
bin	0.0004152384	0
bin	0.0004160928	0
bin	0.0004169472	0
bin	0.0004178016	0
bin	0.000418656	0
bin	0.0004195104	0
bin	0.0004203648	0
bin	0.0004212192	0
bin	0.0004220736	0
bin	0.000422928	0
bin	0.0004237824	0
bin	0.0004246368	0
bin	0.0004254912	0
bin	0.0004263456	0
bin	0.0004272	0
