version 2
run Bitcomplement-5-20120709-19:15:00-24867
attr alg 1
attr buf 8
attr configname Bitcomplement
attr datetime 20120709-19:15:00
attr delta 0.4
attr experiment Bitcomplement
attr ext true
attr inifile altro.ini
attr iterationvars "$buf=8, $ext=true, $ofedge=1, $delta=0.4, $alg=1"
attr iterationvars2 "$buf=8, $ext=true, $ofedge=1, $delta=0.4, $alg=1, $repetition=0"
attr measurement "$buf=8, $ext=true, $ofedge=1, $delta=0.4, $alg=1"
attr network Torus3d_bub
attr ofedge 1
attr processid 24867
attr repetition 0
attr replication #0
attr resultdir altro-results
attr runnumber 5
attr seedset 5

scalar . 	alg 	1
scalar . 	buf 	8
scalar . 	delta 	0.4
scalar . 	ofedge 	1
scalar Torus3d_bub.timer 	#endTime 	0.013991729644811
scalar Torus3d_bub.timer 	#totalHops 	102951970
scalar Torus3d_bub.timer 	#totalPacks 	6291456
scalar Torus3d_bub.timer 	#totalDerouted 	4181721
scalar Torus3d_bub.timer 	#totalOutFlanked 	4181721
scalar Torus3d_bub.timer 	#totalCQRed 	0
scalar Torus3d_bub.timer 	#LB 	0.000786432
scalar Torus3d_bub.timer 	#ratio 	0.056206917941104
statistic Torus3d_bub.timer 	"Hop Times"
field count 6291456
field mean 0.00043466913165901
field stddev 0.00035433327033886
field sum 2734.7017163909
field sqrsum 1.9785955967569
field min 4.25523804e-07
field max 0.003759003108633
bin	-INF	0
bin	0	0
bin	7.12e-08	0
bin	1.424e-07	0
bin	2.136e-07	0
bin	2.848e-07	0
bin	3.56e-07	1
bin	4.272e-07	241
bin	4.984e-07	1951
bin	5.696e-07	3038
bin	6.408e-07	3020
bin	7.12e-07	3395
bin	7.832e-07	3849
bin	8.544e-07	4474
bin	9.256e-07	5041
bin	9.968e-07	5533
bin	1.068e-06	5829
bin	1.1392e-06	6385
bin	1.2104e-06	6887
bin	1.2816e-06	7346
bin	1.3528e-06	7725
bin	1.424e-06	7914
bin	1.4952e-06	8177
bin	1.5664e-06	8296
bin	1.6376e-06	8327
bin	1.7088e-06	8340
bin	1.78e-06	8062
bin	1.8512e-06	8119
bin	1.9224e-06	7926
bin	1.9936e-06	7921
bin	2.0648e-06	7888
bin	2.136e-06	7897
bin	2.2072e-06	7607
bin	2.2784e-06	7808
bin	2.3496e-06	7672
bin	2.4208e-06	7811
bin	2.492e-06	7923
bin	2.5632e-06	7870
bin	2.6344e-06	7676
bin	2.7056e-06	7630
bin	2.7768e-06	7500
bin	2.848e-06	7399
bin	2.9192e-06	7279
bin	2.9904e-06	7096
bin	3.0616e-06	6936
bin	3.1328e-06	6793
bin	3.204e-06	6531
bin	3.2752e-06	6367
bin	3.3464e-06	6125
bin	3.4176e-06	5942
bin	3.4888e-06	5897
bin	3.56e-06	5774
bin	3.6312e-06	5634
bin	3.7024e-06	5359
bin	3.7736e-06	5144
bin	3.8448e-06	5109
bin	3.916e-06	4868
bin	3.9872e-06	4784
bin	4.0584e-06	4571
bin	4.1296e-06	4317
bin	4.2008e-06	4045
bin	4.272e-06	3872
bin	4.3432e-06	3685
bin	4.4144e-06	3596
bin	4.4856e-06	3432
bin	4.5568e-06	3138
bin	4.628e-06	3231
bin	4.6992e-06	3159
bin	4.7704e-06	3009
bin	4.8416e-06	2907
bin	4.9128e-06	2808
bin	4.984e-06	2729
bin	5.0552e-06	2589
bin	5.1264e-06	2509
bin	5.1976e-06	2381
bin	5.2688e-06	2416
bin	5.34e-06	2281
bin	5.4112e-06	2180
bin	5.4824e-06	2216
bin	5.5536e-06	2178
bin	5.6248e-06	2126
bin	5.696e-06	2100
bin	5.7672e-06	1942
bin	5.8384e-06	1968
bin	5.9096e-06	1923
bin	5.9808e-06	1951
bin	6.052e-06	1931
bin	6.1232e-06	1825
bin	6.1944e-06	1773
bin	6.2656e-06	1713
bin	6.3368e-06	1727
bin	6.408e-06	1664
bin	6.4792e-06	1673
bin	6.5504e-06	1681
bin	6.6216e-06	1702
bin	6.6928e-06	1627
bin	6.764e-06	1616
bin	6.8352e-06	1558
bin	6.9064e-06	1548
bin	6.9776e-06	1486
bin	7.0488e-06	1501
bin	7.12e-06	1431
bin	7.1912e-06	1477
bin	7.2624e-06	1495
bin	7.3336e-06	1367
bin	7.4048e-06	1383
bin	7.476e-06	1344
bin	7.5472e-06	1313
bin	7.6184e-06	1360
bin	7.6896e-06	1310
bin	7.7608e-06	1316
bin	7.832e-06	1222
bin	7.9032e-06	1314
bin	7.9744e-06	1273
bin	8.0456e-06	1181
bin	8.1168e-06	1144
bin	8.188e-06	1131
bin	8.2592e-06	1164
bin	8.3304e-06	1090
bin	8.4016e-06	1102
bin	8.4728e-06	1095
bin	8.544e-06	1090
bin	8.6152e-06	1048
bin	8.6864e-06	1148
bin	8.7576e-06	1052
bin	8.8288e-06	1062
bin	8.9e-06	1072
bin	8.9712e-06	1091
bin	9.0424e-06	1130
bin	9.1136e-06	1099
bin	9.1848e-06	1072
bin	9.256e-06	1050
bin	9.3272e-06	1005
bin	9.3984e-06	1006
bin	9.4696e-06	991
bin	9.5408e-06	976
bin	9.612e-06	960
bin	9.6832e-06	921
bin	9.7544e-06	925
bin	9.8256e-06	911
bin	9.8968e-06	908
bin	9.968e-06	897
bin	1.00392e-05	931
bin	1.01104e-05	894
bin	1.01816e-05	906
bin	1.02528e-05	934
bin	1.0324e-05	872
bin	1.03952e-05	869
bin	1.04664e-05	906
bin	1.05376e-05	837
bin	1.06088e-05	883
bin	1.068e-05	833
bin	1.07512e-05	869
bin	1.08224e-05	867
bin	1.08936e-05	836
bin	1.09648e-05	846
bin	1.1036e-05	832
bin	1.11072e-05	816
bin	1.11784e-05	809
bin	1.12496e-05	818
bin	1.13208e-05	808
bin	1.1392e-05	792
bin	1.14632e-05	841
bin	1.15344e-05	822
bin	1.16056e-05	824
bin	1.16768e-05	841
bin	1.1748e-05	808
bin	1.18192e-05	865
bin	1.18904e-05	774
bin	1.19616e-05	771
bin	1.20328e-05	775
bin	1.2104e-05	798
bin	1.21752e-05	803
bin	1.22464e-05	783
bin	1.23176e-05	825
bin	1.23888e-05	835
bin	1.246e-05	847
bin	1.25312e-05	851
bin	1.26024e-05	819
bin	1.26736e-05	825
bin	1.27448e-05	851
bin	1.2816e-05	896
bin	1.28872e-05	879
bin	1.29584e-05	799
bin	1.30296e-05	839
bin	1.31008e-05	805
bin	1.3172e-05	829
bin	1.32432e-05	844
bin	1.33144e-05	772
bin	1.33856e-05	747
bin	1.34568e-05	765
bin	1.3528e-05	733
bin	1.35992e-05	720
bin	1.36704e-05	699
bin	1.37416e-05	723
bin	1.38128e-05	682
bin	1.3884e-05	721
bin	1.39552e-05	740
bin	1.40264e-05	701
bin	1.40976e-05	718
bin	1.41688e-05	737
bin	1.424e-05	743
bin	1.43112e-05	686
bin	1.43824e-05	766
bin	1.44536e-05	708
bin	1.45248e-05	710
bin	1.4596e-05	734
bin	1.46672e-05	728
bin	1.47384e-05	736
bin	1.48096e-05	720
bin	1.48808e-05	672
bin	1.4952e-05	737
bin	1.50232e-05	646
bin	1.50944e-05	679
bin	1.51656e-05	745
bin	1.52368e-05	664
bin	1.5308e-05	720
bin	1.53792e-05	689
bin	1.54504e-05	665
bin	1.55216e-05	673
bin	1.55928e-05	642
bin	1.5664e-05	606
bin	1.57352e-05	638
bin	1.58064e-05	576
bin	1.58776e-05	624
bin	1.59488e-05	611
bin	1.602e-05	604
bin	1.60912e-05	594
bin	1.61624e-05	613
bin	1.62336e-05	620
bin	1.63048e-05	609
bin	1.6376e-05	626
bin	1.64472e-05	695
bin	1.65184e-05	679
bin	1.65896e-05	662
bin	1.66608e-05	650
bin	1.6732e-05	639
bin	1.68032e-05	700
bin	1.68744e-05	683
bin	1.69456e-05	618
bin	1.70168e-05	684
bin	1.7088e-05	697
bin	1.71592e-05	726
bin	1.72304e-05	733
bin	1.73016e-05	711
bin	1.73728e-05	694
bin	1.7444e-05	692
bin	1.75152e-05	670
bin	1.75864e-05	632
bin	1.76576e-05	641
bin	1.77288e-05	583
bin	1.78e-05	602
bin	1.78712e-05	608
bin	1.79424e-05	580
bin	1.80136e-05	629
bin	1.80848e-05	615
bin	1.8156e-05	568
bin	1.82272e-05	587
bin	1.82984e-05	604
bin	1.83696e-05	632
bin	1.84408e-05	637
bin	1.8512e-05	622
bin	1.85832e-05	643
bin	1.86544e-05	584
bin	1.87256e-05	580
bin	1.87968e-05	561
bin	1.8868e-05	591
bin	1.89392e-05	581
bin	1.90104e-05	572
bin	1.90816e-05	573
bin	1.91528e-05	590
bin	1.9224e-05	566
bin	1.92952e-05	539
bin	1.93664e-05	567
bin	1.94376e-05	557
bin	1.95088e-05	540
bin	1.958e-05	557
bin	1.96512e-05	507
bin	1.97224e-05	522
bin	1.97936e-05	506
bin	1.98648e-05	520
bin	1.9936e-05	501
bin	2.00072e-05	501
bin	2.00784e-05	488
bin	2.01496e-05	524
bin	2.02208e-05	546
bin	2.0292e-05	587
bin	2.03632e-05	574
bin	2.04344e-05	605
bin	2.05056e-05	567
bin	2.05768e-05	573
bin	2.0648e-05	589
bin	2.07192e-05	574
bin	2.07904e-05	559
bin	2.08616e-05	501
bin	2.09328e-05	510
bin	2.1004e-05	522
bin	2.10752e-05	556
bin	2.11464e-05	502
bin	2.12176e-05	530
bin	2.12888e-05	523
bin	2.136e-05	496
bin	2.14312e-05	442
bin	2.15024e-05	468
bin	2.15736e-05	495
bin	2.16448e-05	503
bin	2.1716e-05	554
bin	2.17872e-05	499
bin	2.18584e-05	546
bin	2.19296e-05	518
bin	2.20008e-05	550
bin	2.2072e-05	497
bin	2.21432e-05	554
bin	2.22144e-05	462
bin	2.22856e-05	490
bin	2.23568e-05	502
bin	2.2428e-05	516
bin	2.24992e-05	546
bin	2.25704e-05	495
bin	2.26416e-05	520
bin	2.27128e-05	552
bin	2.2784e-05	538
bin	2.28552e-05	507
bin	2.29264e-05	516
bin	2.29976e-05	507
bin	2.30688e-05	448
bin	2.314e-05	478
bin	2.32112e-05	448
bin	2.32824e-05	433
bin	2.33536e-05	418
bin	2.34248e-05	422
bin	2.3496e-05	389
bin	2.35672e-05	432
bin	2.36384e-05	445
bin	2.37096e-05	446
bin	2.37808e-05	457
bin	2.3852e-05	470
bin	2.39232e-05	466
bin	2.39944e-05	464
bin	2.40656e-05	459
bin	2.41368e-05	461
bin	2.4208e-05	468
bin	2.42792e-05	496
bin	2.43504e-05	477
bin	2.44216e-05	484
bin	2.44928e-05	472
bin	2.4564e-05	470
bin	2.46352e-05	476
bin	2.47064e-05	464
bin	2.47776e-05	507
bin	2.48488e-05	501
bin	2.492e-05	493
bin	2.49912e-05	487
bin	2.50624e-05	473
bin	2.51336e-05	459
bin	2.52048e-05	489
bin	2.5276e-05	456
bin	2.53472e-05	386
bin	2.54184e-05	425
bin	2.54896e-05	442
bin	2.55608e-05	444
bin	2.5632e-05	438
bin	2.57032e-05	434
bin	2.57744e-05	464
bin	2.58456e-05	487
bin	2.59168e-05	496
bin	2.5988e-05	472
bin	2.60592e-05	458
bin	2.61304e-05	461
bin	2.62016e-05	468
bin	2.62728e-05	463
bin	2.6344e-05	415
bin	2.64152e-05	454
bin	2.64864e-05	393
bin	2.65576e-05	429
bin	2.66288e-05	447
bin	2.67e-05	395
bin	2.67712e-05	363
bin	2.68424e-05	412
bin	2.69136e-05	396
bin	2.69848e-05	389
bin	2.7056e-05	349
bin	2.71272e-05	368
bin	2.71984e-05	366
bin	2.72696e-05	403
bin	2.73408e-05	420
bin	2.7412e-05	420
bin	2.74832e-05	432
bin	2.75544e-05	426
bin	2.76256e-05	444
bin	2.76968e-05	425
bin	2.7768e-05	393
bin	2.78392e-05	406
bin	2.79104e-05	419
bin	2.79816e-05	444
bin	2.80528e-05	409
bin	2.8124e-05	432
bin	2.81952e-05	433
bin	2.82664e-05	415
bin	2.83376e-05	431
bin	2.84088e-05	406
bin	2.848e-05	431
bin	2.85512e-05	447
bin	2.86224e-05	447
bin	2.86936e-05	487
bin	2.87648e-05	451
bin	2.8836e-05	462
bin	2.89072e-05	427
bin	2.89784e-05	465
bin	2.90496e-05	397
bin	2.91208e-05	393
bin	2.9192e-05	392
bin	2.92632e-05	407
bin	2.93344e-05	424
bin	2.94056e-05	409
bin	2.94768e-05	448
bin	2.9548e-05	423
bin	2.96192e-05	472
bin	2.96904e-05	416
bin	2.97616e-05	410
bin	2.98328e-05	401
bin	2.9904e-05	397
bin	2.99752e-05	407
bin	3.00464e-05	379
bin	3.01176e-05	371
bin	3.01888e-05	391
bin	3.026e-05	442
bin	3.03312e-05	414
bin	3.04024e-05	393
bin	3.04736e-05	358
bin	3.05448e-05	387
bin	3.0616e-05	404
bin	3.06872e-05	380
bin	3.07584e-05	363
bin	3.08296e-05	392
bin	3.09008e-05	357
bin	3.0972e-05	383
bin	3.10432e-05	367
bin	3.11144e-05	373
bin	3.11856e-05	390
bin	3.12568e-05	398
bin	3.1328e-05	374
bin	3.13992e-05	382
bin	3.14704e-05	366
bin	3.15416e-05	368
bin	3.16128e-05	372
bin	3.1684e-05	393
bin	3.17552e-05	425
bin	3.18264e-05	428
bin	3.18976e-05	381
bin	3.19688e-05	433
bin	3.204e-05	393
bin	3.21112e-05	423
bin	3.21824e-05	401
bin	3.22536e-05	378
bin	3.23248e-05	373
bin	3.2396e-05	381
bin	3.24672e-05	379
bin	3.25384e-05	397
bin	3.26096e-05	368
bin	3.26808e-05	345
bin	3.2752e-05	350
bin	3.28232e-05	336
bin	3.28944e-05	332
bin	3.29656e-05	332
bin	3.30368e-05	369
bin	3.3108e-05	346
bin	3.31792e-05	371
bin	3.32504e-05	376
bin	3.33216e-05	396
bin	3.33928e-05	387
bin	3.3464e-05	391
bin	3.35352e-05	385
bin	3.36064e-05	366
bin	3.36776e-05	380
bin	3.37488e-05	380
bin	3.382e-05	352
bin	3.38912e-05	396
bin	3.39624e-05	394
bin	3.40336e-05	374
bin	3.41048e-05	391
bin	3.4176e-05	360
bin	3.42472e-05	395
bin	3.43184e-05	358
bin	3.43896e-05	369
bin	3.44608e-05	326
bin	3.4532e-05	333
bin	3.46032e-05	347
bin	3.46744e-05	364
bin	3.47456e-05	318
bin	3.48168e-05	316
bin	3.4888e-05	326
bin	3.49592e-05	329
bin	3.50304e-05	318
bin	3.51016e-05	322
bin	3.51728e-05	308
bin	3.5244e-05	329
bin	3.53152e-05	337
bin	3.53864e-05	358
bin	3.54576e-05	359
bin	3.55288e-05	363
bin	3.56e-05	5620213
statistic Torus3d_bub.timer 	"Life Times"
field count 6291456
field mean 0.006033028197374
field stddev 0.0032601389853201
field sum 37956.531450538
field sqrsum 295.8615930128
field min 1.46366657e-06
field max 0.013678962645303
bin	-INF	0
bin	0	0
bin	8.544e-07	26
bin	1.7088e-06	216
bin	2.5632e-06	708
bin	3.4176e-06	1130
bin	4.272e-06	1849
bin	5.1264e-06	2398
bin	5.9808e-06	2490
bin	6.8352e-06	2653
bin	7.6896e-06	2867
bin	8.544e-06	3154
bin	9.3984e-06	3310
bin	1.02528e-05	3560
bin	1.11072e-05	3824
bin	1.19616e-05	3892
bin	1.2816e-05	3942
bin	1.36704e-05	4091
bin	1.45248e-05	4144
bin	1.53792e-05	4120
bin	1.62336e-05	4135
bin	1.7088e-05	4103
bin	1.79424e-05	4112
bin	1.87968e-05	4128
bin	1.96512e-05	4177
bin	2.05056e-05	4348
bin	2.136e-05	4422
bin	2.22144e-05	4590
bin	2.30688e-05	4648
bin	2.39232e-05	4754
bin	2.47776e-05	4892
bin	2.5632e-05	4966
bin	2.64864e-05	5127
bin	2.73408e-05	5275
bin	2.81952e-05	5174
bin	2.90496e-05	5325
bin	2.9904e-05	5264
bin	3.07584e-05	5170
bin	3.16128e-05	5281
bin	3.24672e-05	5221
bin	3.33216e-05	5285
bin	3.4176e-05	5302
bin	3.50304e-05	5223
bin	3.58848e-05	5380
bin	3.67392e-05	5514
bin	3.75936e-05	5208
bin	3.8448e-05	5335
bin	3.93024e-05	5273
bin	4.01568e-05	5122
bin	4.10112e-05	5118
bin	4.18656e-05	5177
bin	4.272e-05	5216
bin	4.35744e-05	5115
bin	4.44288e-05	5169
bin	4.52832e-05	5192
bin	4.61376e-05	5216
bin	4.6992e-05	5116
bin	4.78464e-05	5125
bin	4.87008e-05	5128
bin	4.95552e-05	5007
bin	5.04096e-05	5064
bin	5.1264e-05	4906
bin	5.21184e-05	4953
bin	5.29728e-05	5000
bin	5.38272e-05	4869
bin	5.46816e-05	4980
bin	5.5536e-05	4832
bin	5.63904e-05	4709
bin	5.72448e-05	4766
bin	5.80992e-05	4875
bin	5.89536e-05	4897
bin	5.9808e-05	4890
bin	6.06624e-05	4799
bin	6.15168e-05	4749
bin	6.23712e-05	4552
bin	6.32256e-05	4240
bin	6.408e-05	4082
bin	6.49344e-05	4016
bin	6.57888e-05	3862
bin	6.66432e-05	3450
bin	6.74976e-05	3294
bin	6.8352e-05	3172
bin	6.92064e-05	2914
bin	7.00608e-05	2818
bin	7.09152e-05	2700
bin	7.17696e-05	2562
bin	7.2624e-05	2316
bin	7.34784e-05	2262
bin	7.43328e-05	2218
bin	7.51872e-05	1989
bin	7.60416e-05	1964
bin	7.6896e-05	1837
bin	7.77504e-05	1819
bin	7.86048e-05	1776
bin	7.94592e-05	1664
bin	8.03136e-05	1609
bin	8.1168e-05	1586
bin	8.20224e-05	1486
bin	8.28768e-05	1392
bin	8.37312e-05	1365
bin	8.45856e-05	1387
bin	8.544e-05	1365
bin	8.62944e-05	1311
bin	8.71488e-05	1294
bin	8.80032e-05	1322
bin	8.88576e-05	1243
bin	8.9712e-05	1242
bin	9.05664e-05	1263
bin	9.14208e-05	1176
bin	9.22752e-05	1178
bin	9.31296e-05	1192
bin	9.3984e-05	1187
bin	9.48384e-05	1187
bin	9.56928e-05	1206
bin	9.65472e-05	1131
bin	9.74016e-05	1140
bin	9.8256e-05	1161
bin	9.91104e-05	1178
bin	9.99648e-05	1144
bin	0.0001008192	1189
bin	0.0001016736	1173
bin	0.000102528	1078
bin	0.0001033824	1098
bin	0.0001042368	1062
bin	0.0001050912	1117
bin	0.0001059456	1048
bin	0.0001068	1106
bin	0.0001076544	1111
bin	0.0001085088	1091
bin	0.0001093632	1045
bin	0.0001102176	1044
bin	0.000111072	1112
bin	0.0001119264	1070
bin	0.0001127808	1073
bin	0.0001136352	1060
bin	0.0001144896	1078
bin	0.000115344	1066
bin	0.0001161984	1088
bin	0.0001170528	1126
bin	0.0001179072	1106
bin	0.0001187616	1089
bin	0.000119616	1090
bin	0.0001204704	1123
bin	0.0001213248	1124
bin	0.0001221792	1127
bin	0.0001230336	1094
bin	0.000123888	1104
bin	0.0001247424	1125
bin	0.0001255968	1122
bin	0.0001264512	1070
bin	0.0001273056	1025
bin	0.00012816	998
bin	0.0001290144	989
bin	0.0001298688	930
bin	0.0001307232	944
bin	0.0001315776	900
bin	0.000132432	875
bin	0.0001332864	851
bin	0.0001341408	825
bin	0.0001349952	806
bin	0.0001358496	825
bin	0.000136704	758
bin	0.0001375584	758
bin	0.0001384128	740
bin	0.0001392672	722
bin	0.0001401216	674
bin	0.000140976	689
bin	0.0001418304	666
bin	0.0001426848	638
bin	0.0001435392	656
bin	0.0001443936	669
bin	0.000145248	698
bin	0.0001461024	648
bin	0.0001469568	640
bin	0.0001478112	636
bin	0.0001486656	665
bin	0.00014952	646
bin	0.0001503744	627
bin	0.0001512288	656
bin	0.0001520832	637
bin	0.0001529376	652
bin	0.000153792	641
bin	0.0001546464	638
bin	0.0001555008	665
bin	0.0001563552	650
bin	0.0001572096	646
bin	0.000158064	659
bin	0.0001589184	630
bin	0.0001597728	614
bin	0.0001606272	643
bin	0.0001614816	605
bin	0.000162336	585
bin	0.0001631904	579
bin	0.0001640448	645
bin	0.0001648992	638
bin	0.0001657536	646
bin	0.000166608	652
bin	0.0001674624	655
bin	0.0001683168	657
bin	0.0001691712	677
bin	0.0001700256	698
bin	0.00017088	687
bin	0.0001717344	693
bin	0.0001725888	682
bin	0.0001734432	690
bin	0.0001742976	690
bin	0.000175152	632
bin	0.0001760064	695
bin	0.0001768608	689
bin	0.0001777152	662
bin	0.0001785696	670
bin	0.000179424	652
bin	0.0001802784	638
bin	0.0001811328	649
bin	0.0001819872	637
bin	0.0001828416	653
bin	0.000183696	664
bin	0.0001845504	644
bin	0.0001854048	625
bin	0.0001862592	612
bin	0.0001871136	638
bin	0.000187968	640
bin	0.0001888224	667
bin	0.0001896768	631
bin	0.0001905312	694
bin	0.0001913856	649
bin	0.00019224	639
bin	0.0001930944	614
bin	0.0001939488	599
bin	0.0001948032	608
bin	0.0001956576	593
bin	0.000196512	574
bin	0.0001973664	609
bin	0.0001982208	561
bin	0.0001990752	616
bin	0.0001999296	565
bin	0.000200784	574
bin	0.0002016384	623
bin	0.0002024928	569
bin	0.0002033472	560
bin	0.0002042016	550
bin	0.000205056	543
bin	0.0002059104	539
bin	0.0002067648	585
bin	0.0002076192	502
bin	0.0002084736	499
bin	0.000209328	543
bin	0.0002101824	503
bin	0.0002110368	484
bin	0.0002118912	504
bin	0.0002127456	525
bin	0.0002136	509
bin	0.0002144544	526
bin	0.0002153088	517
bin	0.0002161632	530
bin	0.0002170176	487
bin	0.000217872	535
bin	0.0002187264	513
bin	0.0002195808	531
bin	0.0002204352	545
bin	0.0002212896	512
bin	0.000222144	504
bin	0.0002229984	488
bin	0.0002238528	457
bin	0.0002247072	524
bin	0.0002255616	544
bin	0.000226416	513
bin	0.0002272704	500
bin	0.0002281248	519
bin	0.0002289792	519
bin	0.0002298336	508
bin	0.000230688	491
bin	0.0002315424	509
bin	0.0002323968	500
bin	0.0002332512	501
bin	0.0002341056	479
bin	0.00023496	515
bin	0.0002358144	511
bin	0.0002366688	485
bin	0.0002375232	517
bin	0.0002383776	521
bin	0.000239232	545
bin	0.0002400864	546
bin	0.0002409408	558
bin	0.0002417952	597
bin	0.0002426496	553
bin	0.000243504	525
bin	0.0002443584	565
bin	0.0002452128	563
bin	0.0002460672	588
bin	0.0002469216	554
bin	0.000247776	584
bin	0.0002486304	588
bin	0.0002494848	584
bin	0.0002503392	557
bin	0.0002511936	561
bin	0.000252048	542
bin	0.0002529024	536
bin	0.0002537568	471
bin	0.0002546112	467
bin	0.0002554656	481
bin	0.00025632	481
bin	0.0002571744	499
bin	0.0002580288	495
bin	0.0002588832	480
bin	0.0002597376	530
bin	0.000260592	459
bin	0.0002614464	477
bin	0.0002623008	470
bin	0.0002631552	430
bin	0.0002640096	466
bin	0.000264864	444
bin	0.0002657184	460
bin	0.0002665728	416
bin	0.0002674272	430
bin	0.0002682816	421
bin	0.000269136	456
bin	0.0002699904	441
bin	0.0002708448	436
bin	0.0002716992	438
bin	0.0002725536	446
bin	0.000273408	426
bin	0.0002742624	425
bin	0.0002751168	429
bin	0.0002759712	453
bin	0.0002768256	466
bin	0.00027768	422
bin	0.0002785344	461
bin	0.0002793888	432
bin	0.0002802432	438
bin	0.0002810976	420
bin	0.000281952	435
bin	0.0002828064	455
bin	0.0002836608	436
bin	0.0002845152	447
bin	0.0002853696	437
bin	0.000286224	441
bin	0.0002870784	429
bin	0.0002879328	440
bin	0.0002887872	428
bin	0.0002896416	453
bin	0.000290496	463
bin	0.0002913504	458
bin	0.0002922048	513
bin	0.0002930592	483
bin	0.0002939136	448
bin	0.000294768	459
bin	0.0002956224	524
bin	0.0002964768	470
bin	0.0002973312	476
bin	0.0002981856	455
bin	0.00029904	473
bin	0.0002998944	463
bin	0.0003007488	472
bin	0.0003016032	452
bin	0.0003024576	454
bin	0.000303312	457
bin	0.0003041664	467
bin	0.0003050208	455
bin	0.0003058752	445
bin	0.0003067296	458
bin	0.000307584	470
bin	0.0003084384	471
bin	0.0003092928	462
bin	0.0003101472	494
bin	0.0003110016	476
bin	0.000311856	448
bin	0.0003127104	480
bin	0.0003135648	471
bin	0.0003144192	432
bin	0.0003152736	444
bin	0.000316128	440
bin	0.0003169824	425
bin	0.0003178368	411
bin	0.0003186912	466
bin	0.0003195456	424
bin	0.0003204	412
bin	0.0003212544	401
bin	0.0003221088	395
bin	0.0003229632	381
bin	0.0003238176	371
bin	0.000324672	412
bin	0.0003255264	422
bin	0.0003263808	403
bin	0.0003272352	405
bin	0.0003280896	382
bin	0.000328944	425
bin	0.0003297984	406
bin	0.0003306528	398
bin	0.0003315072	410
bin	0.0003323616	384
bin	0.000333216	377
bin	0.0003340704	375
bin	0.0003349248	354
bin	0.0003357792	363
bin	0.0003366336	362
bin	0.000337488	379
bin	0.0003383424	360
bin	0.0003391968	356
bin	0.0003400512	387
bin	0.0003409056	358
bin	0.00034176	350
bin	0.0003426144	356
bin	0.0003434688	395
bin	0.0003443232	383
bin	0.0003451776	400
bin	0.000346032	423
bin	0.0003468864	427
bin	0.0003477408	423
bin	0.0003485952	437
bin	0.0003494496	395
bin	0.000350304	379
bin	0.0003511584	344
bin	0.0003520128	348
bin	0.0003528672	383
bin	0.0003537216	364
bin	0.000354576	339
bin	0.0003554304	341
bin	0.0003562848	336
bin	0.0003571392	341
bin	0.0003579936	335
bin	0.000358848	385
bin	0.0003597024	370
bin	0.0003605568	383
bin	0.0003614112	392
bin	0.0003622656	384
bin	0.00036312	392
bin	0.0003639744	407
bin	0.0003648288	405
bin	0.0003656832	427
bin	0.0003665376	431
bin	0.000367392	397
bin	0.0003682464	424
bin	0.0003691008	405
bin	0.0003699552	458
bin	0.0003708096	424
bin	0.000371664	425
bin	0.0003725184	427
bin	0.0003733728	428
bin	0.0003742272	416
bin	0.0003750816	418
bin	0.000375936	435
bin	0.0003767904	397
bin	0.0003776448	396
bin	0.0003784992	380
bin	0.0003793536	383
bin	0.000380208	375
bin	0.0003810624	377
bin	0.0003819168	372
bin	0.0003827712	358
bin	0.0003836256	335
bin	0.00038448	358
bin	0.0003853344	376
bin	0.0003861888	375
bin	0.0003870432	340
bin	0.0003878976	369
bin	0.000388752	365
bin	0.0003896064	381
bin	0.0003904608	346
bin	0.0003913152	319
bin	0.0003921696	346
bin	0.000393024	333
bin	0.0003938784	317
bin	0.0003947328	336
bin	0.0003955872	333
bin	0.0003964416	347
bin	0.000397296	319
bin	0.0003981504	336
bin	0.0003990048	336
bin	0.0003998592	339
bin	0.0004007136	331
bin	0.000401568	304
bin	0.0004024224	311
bin	0.0004032768	293
bin	0.0004041312	333
bin	0.0004049856	306
bin	0.00040584	302
bin	0.0004066944	288
bin	0.0004075488	288
bin	0.0004084032	275
bin	0.0004092576	290
bin	0.000410112	321
bin	0.0004109664	312
bin	0.0004118208	339
bin	0.0004126752	335
bin	0.0004135296	323
bin	0.000414384	341
bin	0.0004152384	329
bin	0.0004160928	345
bin	0.0004169472	342
bin	0.0004178016	354
bin	0.000418656	321
bin	0.0004195104	348
bin	0.0004203648	333
bin	0.0004212192	347
bin	0.0004220736	335
bin	0.000422928	346
bin	0.0004237824	368
bin	0.0004246368	323
bin	0.0004254912	305
bin	0.0004263456	337
bin	0.0004272	5678208
