version 2
run Bitcomplement-6-20120709-19:17:40-24874
attr alg 2
attr buf 8
attr configname Bitcomplement
attr datetime 20120709-19:17:40
attr delta 0.4
attr experiment Bitcomplement
attr ext true
attr inifile altro.ini
attr iterationvars "$buf=8, $ext=true, $ofedge=1, $delta=0.4, $alg=2"
attr iterationvars2 "$buf=8, $ext=true, $ofedge=1, $delta=0.4, $alg=2, $repetition=0"
attr measurement "$buf=8, $ext=true, $ofedge=1, $delta=0.4, $alg=2"
attr network Torus3d_bub
attr ofedge 1
attr processid 24874
attr repetition 0
attr replication #0
attr resultdir altro-results
attr runnumber 6
attr seedset 6

scalar . 	alg 	2
scalar . 	buf 	8
scalar . 	delta 	0.4
scalar . 	ofedge 	1
scalar Torus3d_bub.timer 	#endTime 	0.004528555333333
scalar Torus3d_bub.timer 	#totalHops 	118358772
scalar Torus3d_bub.timer 	#totalPacks 	6291456
scalar Torus3d_bub.timer 	#totalDerouted 	4421358
scalar Torus3d_bub.timer 	#totalOutFlanked 	0
scalar Torus3d_bub.timer 	#totalCQRed 	4421358
scalar Torus3d_bub.timer 	#LB 	0.000786432
scalar Torus3d_bub.timer 	#ratio 	0.17366068030821
statistic Torus3d_bub.timer 	"Hop Times"
field count 6291456
field mean 2.8677835495926e-05
field stddev 6.4241945444623e-05
field sum 180.42534019786
field sqrsum 0.03113921636845
field min 4.19960733e-07
field max 0.001504175111111
bin	-INF	0
bin	0	0
bin	7.12e-08	0
bin	1.424e-07	0
bin	2.136e-07	0
bin	2.848e-07	0
bin	3.56e-07	4
bin	4.272e-07	398
bin	4.984e-07	2354
bin	5.696e-07	5657
bin	6.408e-07	11755
bin	7.12e-07	22650
bin	7.832e-07	34930
bin	8.544e-07	45735
bin	9.256e-07	53548
bin	9.968e-07	58460
bin	1.068e-06	60814
bin	1.1392e-06	63204
bin	1.2104e-06	65921
bin	1.2816e-06	67867
bin	1.3528e-06	68823
bin	1.424e-06	69594
bin	1.4952e-06	70897
bin	1.5664e-06	71573
bin	1.6376e-06	73553
bin	1.7088e-06	75204
bin	1.78e-06	76816
bin	1.8512e-06	78806
bin	1.9224e-06	80474
bin	1.9936e-06	81195
bin	2.0648e-06	81819
bin	2.136e-06	82506
bin	2.2072e-06	82102
bin	2.2784e-06	82318
bin	2.3496e-06	80576
bin	2.4208e-06	79784
bin	2.492e-06	78723
bin	2.5632e-06	76686
bin	2.6344e-06	75851
bin	2.7056e-06	74145
bin	2.7768e-06	72631
bin	2.848e-06	70970
bin	2.9192e-06	69717
bin	2.9904e-06	67081
bin	3.0616e-06	66194
bin	3.1328e-06	64321
bin	3.204e-06	62377
bin	3.2752e-06	60748
bin	3.3464e-06	57899
bin	3.4176e-06	56627
bin	3.4888e-06	54459
bin	3.56e-06	52346
bin	3.6312e-06	50190
bin	3.7024e-06	48157
bin	3.7736e-06	46166
bin	3.8448e-06	44287
bin	3.916e-06	42805
bin	3.9872e-06	40637
bin	4.0584e-06	39657
bin	4.1296e-06	38725
bin	4.2008e-06	36615
bin	4.272e-06	34905
bin	4.3432e-06	33422
bin	4.4144e-06	31848
bin	4.4856e-06	30859
bin	4.5568e-06	29800
bin	4.628e-06	29326
bin	4.6992e-06	28388
bin	4.7704e-06	27457
bin	4.8416e-06	26157
bin	4.9128e-06	24793
bin	4.984e-06	23831
bin	5.0552e-06	22887
bin	5.1264e-06	22689
bin	5.1976e-06	22148
bin	5.2688e-06	21494
bin	5.34e-06	20739
bin	5.4112e-06	20309
bin	5.4824e-06	19672
bin	5.5536e-06	18922
bin	5.6248e-06	18485
bin	5.696e-06	17746
bin	5.7672e-06	17154
bin	5.8384e-06	16591
bin	5.9096e-06	15995
bin	5.9808e-06	15575
bin	6.052e-06	15324
bin	6.1232e-06	15101
bin	6.1944e-06	14895
bin	6.2656e-06	14442
bin	6.3368e-06	14073
bin	6.408e-06	13968
bin	6.4792e-06	13569
bin	6.5504e-06	13012
bin	6.6216e-06	12291
bin	6.6928e-06	12093
bin	6.764e-06	12200
bin	6.8352e-06	11870
bin	6.9064e-06	11438
bin	6.9776e-06	11352
bin	7.0488e-06	10983
bin	7.12e-06	10778
bin	7.1912e-06	10650
bin	7.2624e-06	10310
bin	7.3336e-06	10104
bin	7.4048e-06	9963
bin	7.476e-06	9872
bin	7.5472e-06	9637
bin	7.6184e-06	9246
bin	7.6896e-06	9120
bin	7.7608e-06	8979
bin	7.832e-06	8858
bin	7.9032e-06	8762
bin	7.9744e-06	8459
bin	8.0456e-06	8234
bin	8.1168e-06	7957
bin	8.188e-06	7837
bin	8.2592e-06	7673
bin	8.3304e-06	7439
bin	8.4016e-06	7461
bin	8.4728e-06	7250
bin	8.544e-06	7240
bin	8.6152e-06	7267
bin	8.6864e-06	7178
bin	8.7576e-06	6993
bin	8.8288e-06	6647
bin	8.9e-06	6683
bin	8.9712e-06	6471
bin	9.0424e-06	6398
bin	9.1136e-06	6359
bin	9.1848e-06	6293
bin	9.256e-06	6320
bin	9.3272e-06	6137
bin	9.3984e-06	6102
bin	9.4696e-06	6023
bin	9.5408e-06	5961
bin	9.612e-06	5805
bin	9.6832e-06	5662
bin	9.7544e-06	5703
bin	9.8256e-06	5570
bin	9.8968e-06	5429
bin	9.968e-06	5337
bin	1.00392e-05	5195
bin	1.01104e-05	5025
bin	1.01816e-05	5251
bin	1.02528e-05	5047
bin	1.0324e-05	4893
bin	1.03952e-05	4774
bin	1.04664e-05	4614
bin	1.05376e-05	4543
bin	1.06088e-05	4524
bin	1.068e-05	4599
bin	1.07512e-05	4459
bin	1.08224e-05	4489
bin	1.08936e-05	4476
bin	1.09648e-05	4376
bin	1.1036e-05	4343
bin	1.11072e-05	4388
bin	1.11784e-05	4407
bin	1.12496e-05	4364
bin	1.13208e-05	4282
bin	1.1392e-05	4193
bin	1.14632e-05	4287
bin	1.15344e-05	4107
bin	1.16056e-05	4023
bin	1.16768e-05	4065
bin	1.1748e-05	3948
bin	1.18192e-05	3891
bin	1.18904e-05	3798
bin	1.19616e-05	3732
bin	1.20328e-05	3845
bin	1.2104e-05	3895
bin	1.21752e-05	3814
bin	1.22464e-05	3663
bin	1.23176e-05	3611
bin	1.23888e-05	3501
bin	1.246e-05	3407
bin	1.25312e-05	3417
bin	1.26024e-05	3436
bin	1.26736e-05	3318
bin	1.27448e-05	3272
bin	1.2816e-05	3275
bin	1.28872e-05	3341
bin	1.29584e-05	3203
bin	1.30296e-05	3264
bin	1.31008e-05	3263
bin	1.3172e-05	3044
bin	1.32432e-05	3138
bin	1.33144e-05	3266
bin	1.33856e-05	3066
bin	1.34568e-05	3111
bin	1.3528e-05	3058
bin	1.35992e-05	3047
bin	1.36704e-05	3093
bin	1.37416e-05	3105
bin	1.38128e-05	2993
bin	1.3884e-05	3034
bin	1.39552e-05	3011
bin	1.40264e-05	2918
bin	1.40976e-05	2993
bin	1.41688e-05	3138
bin	1.424e-05	3016
bin	1.43112e-05	3007
bin	1.43824e-05	2910
bin	1.44536e-05	2878
bin	1.45248e-05	2728
bin	1.4596e-05	2794
bin	1.46672e-05	2706
bin	1.47384e-05	2710
bin	1.48096e-05	2669
bin	1.48808e-05	2629
bin	1.4952e-05	2595
bin	1.50232e-05	2566
bin	1.50944e-05	2631
bin	1.51656e-05	2569
bin	1.52368e-05	2518
bin	1.5308e-05	2510
bin	1.53792e-05	2414
bin	1.54504e-05	2435
bin	1.55216e-05	2370
bin	1.55928e-05	2421
bin	1.5664e-05	2464
bin	1.57352e-05	2368
bin	1.58064e-05	2316
bin	1.58776e-05	2306
bin	1.59488e-05	2339
bin	1.602e-05	2328
bin	1.60912e-05	2425
bin	1.61624e-05	2445
bin	1.62336e-05	2394
bin	1.63048e-05	2391
bin	1.6376e-05	2392
bin	1.64472e-05	2325
bin	1.65184e-05	2312
bin	1.65896e-05	2391
bin	1.66608e-05	2302
bin	1.6732e-05	2270
bin	1.68032e-05	2209
bin	1.68744e-05	2226
bin	1.69456e-05	2177
bin	1.70168e-05	2117
bin	1.7088e-05	2130
bin	1.71592e-05	2150
bin	1.72304e-05	2199
bin	1.73016e-05	2103
bin	1.73728e-05	2095
bin	1.7444e-05	2107
bin	1.75152e-05	2084
bin	1.75864e-05	2209
bin	1.76576e-05	2177
bin	1.77288e-05	2053
bin	1.78e-05	2064
bin	1.78712e-05	1976
bin	1.79424e-05	1939
bin	1.80136e-05	2047
bin	1.80848e-05	2044
bin	1.8156e-05	1967
bin	1.82272e-05	1994
bin	1.82984e-05	1968
bin	1.83696e-05	2021
bin	1.84408e-05	1936
bin	1.8512e-05	1973
bin	1.85832e-05	1982
bin	1.86544e-05	1955
bin	1.87256e-05	1943
bin	1.87968e-05	1925
bin	1.8868e-05	1996
bin	1.89392e-05	1871
bin	1.90104e-05	1951
bin	1.90816e-05	1874
bin	1.91528e-05	1903
bin	1.9224e-05	1869
bin	1.92952e-05	1836
bin	1.93664e-05	1855
bin	1.94376e-05	1786
bin	1.95088e-05	1855
bin	1.958e-05	1901
bin	1.96512e-05	1836
bin	1.97224e-05	1775
bin	1.97936e-05	1737
bin	1.98648e-05	1746
bin	1.9936e-05	1751
bin	2.00072e-05	1721
bin	2.00784e-05	1712
bin	2.01496e-05	1742
bin	2.02208e-05	1747
bin	2.0292e-05	1815
bin	2.03632e-05	1790
bin	2.04344e-05	1725
bin	2.05056e-05	1690
bin	2.05768e-05	1743
bin	2.0648e-05	1699
bin	2.07192e-05	1677
bin	2.07904e-05	1663
bin	2.08616e-05	1677
bin	2.09328e-05	1615
bin	2.1004e-05	1696
bin	2.10752e-05	1672
bin	2.11464e-05	1686
bin	2.12176e-05	1610
bin	2.12888e-05	1583
bin	2.136e-05	1562
bin	2.14312e-05	1596
bin	2.15024e-05	1590
bin	2.15736e-05	1568
bin	2.16448e-05	1644
bin	2.1716e-05	1599
bin	2.17872e-05	1574
bin	2.18584e-05	1554
bin	2.19296e-05	1664
bin	2.20008e-05	1592
bin	2.2072e-05	1543
bin	2.21432e-05	1557
bin	2.22144e-05	1630
bin	2.22856e-05	1534
bin	2.23568e-05	1566
bin	2.2428e-05	1540
bin	2.24992e-05	1593
bin	2.25704e-05	1577
bin	2.26416e-05	1619
bin	2.27128e-05	1539
bin	2.2784e-05	1508
bin	2.28552e-05	1505
bin	2.29264e-05	1522
bin	2.29976e-05	1523
bin	2.30688e-05	1604
bin	2.314e-05	1637
bin	2.32112e-05	1529
bin	2.32824e-05	1488
bin	2.33536e-05	1484
bin	2.34248e-05	1497
bin	2.3496e-05	1516
bin	2.35672e-05	1484
bin	2.36384e-05	1422
bin	2.37096e-05	1448
bin	2.37808e-05	1448
bin	2.3852e-05	1472
bin	2.39232e-05	1457
bin	2.39944e-05	1497
bin	2.40656e-05	1476
bin	2.41368e-05	1462
bin	2.4208e-05	1529
bin	2.42792e-05	1558
bin	2.43504e-05	1505
bin	2.44216e-05	1521
bin	2.44928e-05	1536
bin	2.4564e-05	1472
bin	2.46352e-05	1485
bin	2.47064e-05	1460
bin	2.47776e-05	1495
bin	2.48488e-05	1412
bin	2.492e-05	1490
bin	2.49912e-05	1459
bin	2.50624e-05	1420
bin	2.51336e-05	1447
bin	2.52048e-05	1392
bin	2.5276e-05	1470
bin	2.53472e-05	1419
bin	2.54184e-05	1439
bin	2.54896e-05	1410
bin	2.55608e-05	1370
bin	2.5632e-05	1399
bin	2.57032e-05	1336
bin	2.57744e-05	1311
bin	2.58456e-05	1303
bin	2.59168e-05	1329
bin	2.5988e-05	1334
bin	2.60592e-05	1307
bin	2.61304e-05	1375
bin	2.62016e-05	1408
bin	2.62728e-05	1412
bin	2.6344e-05	1379
bin	2.64152e-05	1380
bin	2.64864e-05	1320
bin	2.65576e-05	1329
bin	2.66288e-05	1267
bin	2.67e-05	1247
bin	2.67712e-05	1266
bin	2.68424e-05	1257
bin	2.69136e-05	1284
bin	2.69848e-05	1303
bin	2.7056e-05	1313
bin	2.71272e-05	1299
bin	2.71984e-05	1362
bin	2.72696e-05	1333
bin	2.73408e-05	1304
bin	2.7412e-05	1225
bin	2.74832e-05	1247
bin	2.75544e-05	1223
bin	2.76256e-05	1292
bin	2.76968e-05	1285
bin	2.7768e-05	1343
bin	2.78392e-05	1268
bin	2.79104e-05	1252
bin	2.79816e-05	1258
bin	2.80528e-05	1252
bin	2.8124e-05	1296
bin	2.81952e-05	1287
bin	2.82664e-05	1323
bin	2.83376e-05	1239
bin	2.84088e-05	1218
bin	2.848e-05	1217
bin	2.85512e-05	1172
bin	2.86224e-05	1208
bin	2.86936e-05	1216
bin	2.87648e-05	1185
bin	2.8836e-05	1148
bin	2.89072e-05	1184
bin	2.89784e-05	1167
bin	2.90496e-05	1225
bin	2.91208e-05	1188
bin	2.9192e-05	1243
bin	2.92632e-05	1189
bin	2.93344e-05	1236
bin	2.94056e-05	1166
bin	2.94768e-05	1209
bin	2.9548e-05	1180
bin	2.96192e-05	1153
bin	2.96904e-05	1203
bin	2.97616e-05	1226
bin	2.98328e-05	1215
bin	2.9904e-05	1248
bin	2.99752e-05	1272
bin	3.00464e-05	1217
bin	3.01176e-05	1128
bin	3.01888e-05	1209
bin	3.026e-05	1140
bin	3.03312e-05	1166
bin	3.04024e-05	1192
bin	3.04736e-05	1210
bin	3.05448e-05	1208
bin	3.0616e-05	1178
bin	3.06872e-05	1200
bin	3.07584e-05	1209
bin	3.08296e-05	1205
bin	3.09008e-05	1149
bin	3.0972e-05	1180
bin	3.10432e-05	1112
bin	3.11144e-05	1099
bin	3.11856e-05	1163
bin	3.12568e-05	1097
bin	3.1328e-05	1113
bin	3.13992e-05	1067
bin	3.14704e-05	1015
bin	3.15416e-05	1113
bin	3.16128e-05	1074
bin	3.1684e-05	1022
bin	3.17552e-05	1041
bin	3.18264e-05	971
bin	3.18976e-05	1107
bin	3.19688e-05	1077
bin	3.204e-05	1091
bin	3.21112e-05	1081
bin	3.21824e-05	1154
bin	3.22536e-05	1068
bin	3.23248e-05	1067
bin	3.2396e-05	1136
bin	3.24672e-05	1209
bin	3.25384e-05	1189
bin	3.26096e-05	1174
bin	3.26808e-05	1217
bin	3.2752e-05	1230
bin	3.28232e-05	1206
bin	3.28944e-05	1142
bin	3.29656e-05	1150
bin	3.30368e-05	1117
bin	3.3108e-05	1105
bin	3.31792e-05	1129
bin	3.32504e-05	1096
bin	3.33216e-05	1158
bin	3.33928e-05	1181
bin	3.3464e-05	1210
bin	3.35352e-05	1176
bin	3.36064e-05	1179
bin	3.36776e-05	1200
bin	3.37488e-05	1187
bin	3.382e-05	1100
bin	3.38912e-05	1152
bin	3.39624e-05	1088
bin	3.40336e-05	1159
bin	3.41048e-05	1125
bin	3.4176e-05	1153
bin	3.42472e-05	1161
bin	3.43184e-05	1224
bin	3.43896e-05	1242
bin	3.44608e-05	1223
bin	3.4532e-05	1162
bin	3.46032e-05	1064
bin	3.46744e-05	1108
bin	3.47456e-05	1096
bin	3.48168e-05	1190
bin	3.4888e-05	1141
bin	3.49592e-05	1104
bin	3.50304e-05	1176
bin	3.51016e-05	1170
bin	3.51728e-05	1144
bin	3.5244e-05	1164
bin	3.53152e-05	1161
bin	3.53864e-05	1127
bin	3.54576e-05	1129
bin	3.55288e-05	1130
bin	3.56e-05	1319352
statistic Torus3d_bub.timer 	"Life Times"
field count 6291456
field mean 0.0004490928025321
field stddev 0.00075727683969256
field sum 2825.4476070474
field sqrsum 4.8768376335745
field min 1.463666666e-06
field max 0.004512525333333
bin	-INF	0
bin	0	0
bin	8.544e-07	19
bin	1.7088e-06	147
bin	2.5632e-06	297
bin	3.4176e-06	596
bin	4.272e-06	951
bin	5.1264e-06	1479
bin	5.9808e-06	2234
bin	6.8352e-06	3458
bin	7.6896e-06	4963
bin	8.544e-06	6923
bin	9.3984e-06	8962
bin	1.02528e-05	11205
bin	1.11072e-05	13688
bin	1.19616e-05	16257
bin	1.2816e-05	18795
bin	1.36704e-05	21798
bin	1.45248e-05	23874
bin	1.53792e-05	26084
bin	1.62336e-05	27361
bin	1.7088e-05	28842
bin	1.79424e-05	29951
bin	1.87968e-05	30996
bin	1.96512e-05	31249
bin	2.05056e-05	31563
bin	2.136e-05	31255
bin	2.22144e-05	31394
bin	2.30688e-05	31696
bin	2.39232e-05	32200
bin	2.47776e-05	33031
bin	2.5632e-05	33836
bin	2.64864e-05	35028
bin	2.73408e-05	36924
bin	2.81952e-05	37679
bin	2.90496e-05	39335
bin	2.9904e-05	40860
bin	3.07584e-05	41755
bin	3.16128e-05	43431
bin	3.24672e-05	44095
bin	3.33216e-05	45150
bin	3.4176e-05	45840
bin	3.50304e-05	46593
bin	3.58848e-05	47323
bin	3.67392e-05	47581
bin	3.75936e-05	48166
bin	3.8448e-05	48547
bin	3.93024e-05	49464
bin	4.01568e-05	49711
bin	4.10112e-05	50234
bin	4.18656e-05	50394
bin	4.272e-05	51076
bin	4.35744e-05	51483
bin	4.44288e-05	51758
bin	4.52832e-05	52751
bin	4.61376e-05	52971
bin	4.6992e-05	53192
bin	4.78464e-05	53789
bin	4.87008e-05	53842
bin	4.95552e-05	54088
bin	5.04096e-05	54212
bin	5.1264e-05	54633
bin	5.21184e-05	55526
bin	5.29728e-05	55224
bin	5.38272e-05	55178
bin	5.46816e-05	55202
bin	5.5536e-05	55667
bin	5.63904e-05	55270
bin	5.72448e-05	55668
bin	5.80992e-05	55548
bin	5.89536e-05	55484
bin	5.9808e-05	55175
bin	6.06624e-05	54858
bin	6.15168e-05	54232
bin	6.23712e-05	50818
bin	6.32256e-05	47454
bin	6.408e-05	45290
bin	6.49344e-05	43169
bin	6.57888e-05	41414
bin	6.66432e-05	40193
bin	6.74976e-05	38929
bin	6.8352e-05	37368
bin	6.92064e-05	36881
bin	7.00608e-05	35898
bin	7.09152e-05	34810
bin	7.17696e-05	33903
bin	7.2624e-05	32288
bin	7.34784e-05	31477
bin	7.43328e-05	29819
bin	7.51872e-05	28609
bin	7.60416e-05	27044
bin	7.6896e-05	25643
bin	7.77504e-05	24385
bin	7.86048e-05	23668
bin	7.94592e-05	22766
bin	8.03136e-05	22147
bin	8.1168e-05	21600
bin	8.20224e-05	20961
bin	8.28768e-05	20769
bin	8.37312e-05	19881
bin	8.45856e-05	19262
bin	8.544e-05	18887
bin	8.62944e-05	17965
bin	8.71488e-05	17494
bin	8.80032e-05	16872
bin	8.88576e-05	15968
bin	8.9712e-05	15590
bin	9.05664e-05	14827
bin	9.14208e-05	14117
bin	9.22752e-05	13587
bin	9.31296e-05	13083
bin	9.3984e-05	12598
bin	9.48384e-05	12411
bin	9.56928e-05	11702
bin	9.65472e-05	11380
bin	9.74016e-05	11173
bin	9.8256e-05	10708
bin	9.91104e-05	10494
bin	9.99648e-05	10263
bin	0.0001008192	10144
bin	0.0001016736	9958
bin	0.000102528	9836
bin	0.0001033824	9608
bin	0.0001042368	9493
bin	0.0001050912	9284
bin	0.0001059456	9471
bin	0.0001068	9089
bin	0.0001076544	9062
bin	0.0001085088	8945
bin	0.0001093632	8741
bin	0.0001102176	8669
bin	0.000111072	8570
bin	0.0001119264	8532
bin	0.0001127808	8638
bin	0.0001136352	8347
bin	0.0001144896	8408
bin	0.000115344	8543
bin	0.0001161984	8423
bin	0.0001170528	8381
bin	0.0001179072	8475
bin	0.0001187616	8403
bin	0.000119616	8169
bin	0.0001204704	8339
bin	0.0001213248	8216
bin	0.0001221792	8416
bin	0.0001230336	8286
bin	0.000123888	8102
bin	0.0001247424	8138
bin	0.0001255968	7858
bin	0.0001264512	7832
bin	0.0001273056	7761
bin	0.00012816	7582
bin	0.0001290144	7775
bin	0.0001298688	7624
bin	0.0001307232	7309
bin	0.0001315776	7456
bin	0.000132432	7455
bin	0.0001332864	7281
bin	0.0001341408	7214
bin	0.0001349952	7013
bin	0.0001358496	6757
bin	0.000136704	6647
bin	0.0001375584	6365
bin	0.0001384128	6313
bin	0.0001392672	6200
bin	0.0001401216	5855
bin	0.000140976	5890
bin	0.0001418304	5794
bin	0.0001426848	5727
bin	0.0001435392	5670
bin	0.0001443936	5575
bin	0.000145248	5432
bin	0.0001461024	5340
bin	0.0001469568	5202
bin	0.0001478112	5106
bin	0.0001486656	5067
bin	0.00014952	4883
bin	0.0001503744	4816
bin	0.0001512288	4613
bin	0.0001520832	4461
bin	0.0001529376	4510
bin	0.000153792	4309
bin	0.0001546464	4286
bin	0.0001555008	4150
bin	0.0001563552	3942
bin	0.0001572096	3903
bin	0.000158064	3886
bin	0.0001589184	3708
bin	0.0001597728	3662
bin	0.0001606272	3591
bin	0.0001614816	3568
bin	0.000162336	3562
bin	0.0001631904	3475
bin	0.0001640448	3391
bin	0.0001648992	3307
bin	0.0001657536	3369
bin	0.000166608	3428
bin	0.0001674624	3384
bin	0.0001683168	3483
bin	0.0001691712	3367
bin	0.0001700256	3270
bin	0.00017088	3300
bin	0.0001717344	3214
bin	0.0001725888	3262
bin	0.0001734432	3285
bin	0.0001742976	3184
bin	0.000175152	3177
bin	0.0001760064	3228
bin	0.0001768608	3074
bin	0.0001777152	3217
bin	0.0001785696	3092
bin	0.000179424	3227
bin	0.0001802784	3347
bin	0.0001811328	3294
bin	0.0001819872	3293
bin	0.0001828416	3326
bin	0.000183696	3295
bin	0.0001845504	3391
bin	0.0001854048	3341
bin	0.0001862592	3214
bin	0.0001871136	3191
bin	0.000187968	3240
bin	0.0001888224	3272
bin	0.0001896768	3272
bin	0.0001905312	3333
bin	0.0001913856	3281
bin	0.00019224	3265
bin	0.0001930944	3262
bin	0.0001939488	3275
bin	0.0001948032	3217
bin	0.0001956576	3090
bin	0.000196512	3200
bin	0.0001973664	3137
bin	0.0001982208	2952
bin	0.0001990752	3040
bin	0.0001999296	2921
bin	0.000200784	2852
bin	0.0002016384	2675
bin	0.0002024928	2705
bin	0.0002033472	2613
bin	0.0002042016	2663
bin	0.000205056	2647
bin	0.0002059104	2599
bin	0.0002067648	2598
bin	0.0002076192	2574
bin	0.0002084736	2565
bin	0.000209328	2595
bin	0.0002101824	2483
bin	0.0002110368	2460
bin	0.0002118912	2384
bin	0.0002127456	2413
bin	0.0002136	2311
bin	0.0002144544	2202
bin	0.0002153088	2211
bin	0.0002161632	2151
bin	0.0002170176	2078
bin	0.000217872	2146
bin	0.0002187264	2080
bin	0.0002195808	1951
bin	0.0002204352	1932
bin	0.0002212896	1934
bin	0.000222144	1948
bin	0.0002229984	1997
bin	0.0002238528	1915
bin	0.0002247072	1947
bin	0.0002255616	1875
bin	0.000226416	1953
bin	0.0002272704	1892
bin	0.0002281248	1769
bin	0.0002289792	1827
bin	0.0002298336	1773
bin	0.000230688	1792
bin	0.0002315424	1909
bin	0.0002323968	1870
bin	0.0002332512	1801
bin	0.0002341056	1844
bin	0.00023496	1788
bin	0.0002358144	1940
bin	0.0002366688	1857
bin	0.0002375232	1822
bin	0.0002383776	1832
bin	0.000239232	1866
bin	0.0002400864	1834
bin	0.0002409408	1864
bin	0.0002417952	1989
bin	0.0002426496	1877
bin	0.000243504	1931
bin	0.0002443584	1927
bin	0.0002452128	1892
bin	0.0002460672	1893
bin	0.0002469216	1851
bin	0.000247776	1919
bin	0.0002486304	2005
bin	0.0002494848	1905
bin	0.0002503392	1958
bin	0.0002511936	1911
bin	0.000252048	2037
bin	0.0002529024	1984
bin	0.0002537568	1891
bin	0.0002546112	1962
bin	0.0002554656	1963
bin	0.00025632	1917
bin	0.0002571744	1957
bin	0.0002580288	1910
bin	0.0002588832	1903
bin	0.0002597376	1871
bin	0.000260592	1818
bin	0.0002614464	1748
bin	0.0002623008	1791
bin	0.0002631552	1756
bin	0.0002640096	1779
bin	0.000264864	1731
bin	0.0002657184	1790
bin	0.0002665728	1690
bin	0.0002674272	1680
bin	0.0002682816	1632
bin	0.000269136	1663
bin	0.0002699904	1623
bin	0.0002708448	1636
bin	0.0002716992	1588
bin	0.0002725536	1561
bin	0.000273408	1601
bin	0.0002742624	1485
bin	0.0002751168	1526
bin	0.0002759712	1500
bin	0.0002768256	1453
bin	0.00027768	1457
bin	0.0002785344	1487
bin	0.0002793888	1433
bin	0.0002802432	1465
bin	0.0002810976	1450
bin	0.000281952	1476
bin	0.0002828064	1413
bin	0.0002836608	1454
bin	0.0002845152	1402
bin	0.0002853696	1387
bin	0.000286224	1322
bin	0.0002870784	1387
bin	0.0002879328	1284
bin	0.0002887872	1312
bin	0.0002896416	1284
bin	0.000290496	1307
bin	0.0002913504	1332
bin	0.0002922048	1273
bin	0.0002930592	1310
bin	0.0002939136	1283
bin	0.000294768	1255
bin	0.0002956224	1356
bin	0.0002964768	1333
bin	0.0002973312	1283
bin	0.0002981856	1367
bin	0.00029904	1347
bin	0.0002998944	1357
bin	0.0003007488	1349
bin	0.0003016032	1336
bin	0.0003024576	1329
bin	0.000303312	1340
bin	0.0003041664	1280
bin	0.0003050208	1329
bin	0.0003058752	1339
bin	0.0003067296	1346
bin	0.000307584	1379
bin	0.0003084384	1345
bin	0.0003092928	1330
bin	0.0003101472	1331
bin	0.0003110016	1284
bin	0.000311856	1249
bin	0.0003127104	1304
bin	0.0003135648	1324
bin	0.0003144192	1333
bin	0.0003152736	1393
bin	0.000316128	1343
bin	0.0003169824	1371
bin	0.0003178368	1312
bin	0.0003186912	1329
bin	0.0003195456	1350
bin	0.0003204	1304
bin	0.0003212544	1322
bin	0.0003221088	1285
bin	0.0003229632	1183
bin	0.0003238176	1252
bin	0.000324672	1246
bin	0.0003255264	1247
bin	0.0003263808	1244
bin	0.0003272352	1164
bin	0.0003280896	1095
bin	0.000328944	1165
bin	0.0003297984	1193
bin	0.0003306528	1161
bin	0.0003315072	1200
bin	0.0003323616	1220
bin	0.000333216	1165
bin	0.0003340704	1145
bin	0.0003349248	1167
bin	0.0003357792	1150
bin	0.0003366336	1164
bin	0.000337488	1136
bin	0.0003383424	1144
bin	0.0003391968	1102
bin	0.0003400512	1066
bin	0.0003409056	1131
bin	0.00034176	1137
bin	0.0003426144	1109
bin	0.0003434688	1140
bin	0.0003443232	1066
bin	0.0003451776	1052
bin	0.000346032	1035
bin	0.0003468864	1063
bin	0.0003477408	1016
bin	0.0003485952	1026
bin	0.0003494496	1020
bin	0.000350304	1066
bin	0.0003511584	1060
bin	0.0003520128	1002
bin	0.0003528672	1060
bin	0.0003537216	994
bin	0.000354576	1047
bin	0.0003554304	983
bin	0.0003562848	1005
bin	0.0003571392	1002
bin	0.0003579936	964
bin	0.000358848	1012
bin	0.0003597024	1019
bin	0.0003605568	996
bin	0.0003614112	1122
bin	0.0003622656	1026
bin	0.00036312	1039
bin	0.0003639744	1057
bin	0.0003648288	1060
bin	0.0003656832	1051
bin	0.0003665376	1046
bin	0.000367392	1028
bin	0.0003682464	1090
bin	0.0003691008	1076
bin	0.0003699552	1044
bin	0.0003708096	1057
bin	0.000371664	1064
bin	0.0003725184	1141
bin	0.0003733728	1100
bin	0.0003742272	1051
bin	0.0003750816	1072
bin	0.000375936	1062
bin	0.0003767904	1087
bin	0.0003776448	1101
bin	0.0003784992	1097
bin	0.0003793536	1055
bin	0.000380208	1091
bin	0.0003810624	1002
bin	0.0003819168	1062
bin	0.0003827712	1049
bin	0.0003836256	1049
bin	0.00038448	1065
bin	0.0003853344	1052
bin	0.0003861888	999
bin	0.0003870432	996
bin	0.0003878976	1003
bin	0.000388752	954
bin	0.0003896064	984
bin	0.0003904608	987
bin	0.0003913152	998
bin	0.0003921696	971
bin	0.000393024	999
bin	0.0003938784	1004
bin	0.0003947328	928
bin	0.0003955872	955
bin	0.0003964416	983
bin	0.000397296	955
bin	0.0003981504	973
bin	0.0003990048	1020
bin	0.0003998592	933
bin	0.0004007136	901
bin	0.000401568	919
bin	0.0004024224	862
bin	0.0004032768	865
bin	0.0004041312	856
bin	0.0004049856	909
bin	0.00040584	878
bin	0.0004066944	843
bin	0.0004075488	921
bin	0.0004084032	853
bin	0.0004092576	878
bin	0.000410112	879
bin	0.0004109664	913
bin	0.0004118208	843
bin	0.0004126752	934
bin	0.0004135296	840
bin	0.000414384	879
bin	0.0004152384	928
bin	0.0004160928	889
bin	0.0004169472	898
bin	0.0004178016	920
bin	0.000418656	851
bin	0.0004195104	852
bin	0.0004203648	848
bin	0.0004212192	885
bin	0.0004220736	877
bin	0.000422928	825
bin	0.0004237824	822
bin	0.0004246368	870
bin	0.0004254912	920
bin	0.0004263456	846
bin	0.0004272	1535082
