version 2
run Bitcomplement-46-20120709-21:58:23-24938
attr alg 2
attr buf 8
attr configname Bitcomplement
attr datetime 20120709-21:58:23
attr delta 0.6
attr experiment Bitcomplement
attr ext false
attr inifile altro.ini
attr iterationvars "$buf=8, $ext=false, $ofedge=2, $delta=0.6, $alg=2"
attr iterationvars2 "$buf=8, $ext=false, $ofedge=2, $delta=0.6, $alg=2, $repetition=0"
attr measurement "$buf=8, $ext=false, $ofedge=2, $delta=0.6, $alg=2"
attr network Torus3d_bub
attr ofedge 2
attr processid 24938
attr repetition 0
attr replication #0
attr resultdir altro-results
attr runnumber 46
attr seedset 46

scalar . 	alg 	2
scalar . 	buf 	8
scalar . 	delta 	0.6
scalar . 	ofedge 	2
scalar Torus3d_bub.timer 	#endTime 	0.010126908317512
scalar Torus3d_bub.timer 	#totalHops 	122513520
scalar Torus3d_bub.timer 	#totalPacks 	6291456
scalar Torus3d_bub.timer 	#totalDerouted 	4812974
scalar Torus3d_bub.timer 	#totalOutFlanked 	0
scalar Torus3d_bub.timer 	#totalCQRed 	4812974
scalar Torus3d_bub.timer 	#LB 	0.000786432
scalar Torus3d_bub.timer 	#ratio 	0.077657659706473
statistic Torus3d_bub.timer 	"Hop Times"
field count 6291456
field mean 0.00022779743733023
field stddev 0.00026078160673024
field sum 1433.1775538759
field sqrsum 0.75433744617605
field min 4.16777777e-07
field max 0.003352872883651
bin	-INF	0
bin	0	0
bin	7.12e-08	0
bin	1.424e-07	0
bin	2.136e-07	0
bin	2.848e-07	0
bin	3.56e-07	16
bin	4.272e-07	102
bin	4.984e-07	1061
bin	5.696e-07	1752
bin	6.408e-07	2420
bin	7.12e-07	4106
bin	7.832e-07	6333
bin	8.544e-07	8803
bin	9.256e-07	10786
bin	9.968e-07	11923
bin	1.068e-06	13620
bin	1.1392e-06	14491
bin	1.2104e-06	15663
bin	1.2816e-06	16166
bin	1.3528e-06	17189
bin	1.424e-06	17699
bin	1.4952e-06	18693
bin	1.5664e-06	19200
bin	1.6376e-06	19848
bin	1.7088e-06	20261
bin	1.78e-06	20638
bin	1.8512e-06	20762
bin	1.9224e-06	20666
bin	1.9936e-06	20646
bin	2.0648e-06	20640
bin	2.136e-06	20678
bin	2.2072e-06	20813
bin	2.2784e-06	20598
bin	2.3496e-06	20004
bin	2.4208e-06	19348
bin	2.492e-06	18940
bin	2.5632e-06	18031
bin	2.6344e-06	17590
bin	2.7056e-06	16353
bin	2.7768e-06	15999
bin	2.848e-06	15180
bin	2.9192e-06	14578
bin	2.9904e-06	13654
bin	3.0616e-06	12989
bin	3.1328e-06	12431
bin	3.204e-06	11874
bin	3.2752e-06	11639
bin	3.3464e-06	11085
bin	3.4176e-06	10898
bin	3.4888e-06	10407
bin	3.56e-06	10237
bin	3.6312e-06	10095
bin	3.7024e-06	9406
bin	3.7736e-06	9229
bin	3.8448e-06	8986
bin	3.916e-06	8733
bin	3.9872e-06	8202
bin	4.0584e-06	7980
bin	4.1296e-06	7574
bin	4.2008e-06	7529
bin	4.272e-06	7236
bin	4.3432e-06	7053
bin	4.4144e-06	6757
bin	4.4856e-06	6766
bin	4.5568e-06	6375
bin	4.628e-06	6193
bin	4.6992e-06	5838
bin	4.7704e-06	5804
bin	4.8416e-06	5581
bin	4.9128e-06	5589
bin	4.984e-06	5475
bin	5.0552e-06	5490
bin	5.1264e-06	5342
bin	5.1976e-06	5155
bin	5.2688e-06	5120
bin	5.34e-06	5041
bin	5.4112e-06	5056
bin	5.4824e-06	4858
bin	5.5536e-06	4819
bin	5.6248e-06	4716
bin	5.696e-06	4448
bin	5.7672e-06	4448
bin	5.8384e-06	4387
bin	5.9096e-06	4318
bin	5.9808e-06	4208
bin	6.052e-06	4094
bin	6.1232e-06	4038
bin	6.1944e-06	3912
bin	6.2656e-06	3782
bin	6.3368e-06	3602
bin	6.408e-06	3705
bin	6.4792e-06	3718
bin	6.5504e-06	3510
bin	6.6216e-06	3499
bin	6.6928e-06	3503
bin	6.764e-06	3519
bin	6.8352e-06	3364
bin	6.9064e-06	3227
bin	6.9776e-06	3162
bin	7.0488e-06	3091
bin	7.12e-06	2978
bin	7.1912e-06	3089
bin	7.2624e-06	3006
bin	7.3336e-06	2891
bin	7.4048e-06	2789
bin	7.476e-06	2870
bin	7.5472e-06	2872
bin	7.6184e-06	2857
bin	7.6896e-06	2841
bin	7.7608e-06	2788
bin	7.832e-06	2756
bin	7.9032e-06	2710
bin	7.9744e-06	2726
bin	8.0456e-06	2546
bin	8.1168e-06	2601
bin	8.188e-06	2527
bin	8.2592e-06	2475
bin	8.3304e-06	2469
bin	8.4016e-06	2357
bin	8.4728e-06	2341
bin	8.544e-06	2319
bin	8.6152e-06	2313
bin	8.6864e-06	2340
bin	8.7576e-06	2355
bin	8.8288e-06	2227
bin	8.9e-06	2256
bin	8.9712e-06	2206
bin	9.0424e-06	2209
bin	9.1136e-06	2322
bin	9.1848e-06	2209
bin	9.256e-06	2072
bin	9.3272e-06	2109
bin	9.3984e-06	2161
bin	9.4696e-06	2099
bin	9.5408e-06	2092
bin	9.612e-06	1976
bin	9.6832e-06	2066
bin	9.7544e-06	2016
bin	9.8256e-06	1994
bin	9.8968e-06	1935
bin	9.968e-06	1939
bin	1.00392e-05	1863
bin	1.01104e-05	1820
bin	1.01816e-05	1857
bin	1.02528e-05	1815
bin	1.0324e-05	1826
bin	1.03952e-05	1743
bin	1.04664e-05	1764
bin	1.05376e-05	1805
bin	1.06088e-05	1739
bin	1.068e-05	1722
bin	1.07512e-05	1707
bin	1.08224e-05	1803
bin	1.08936e-05	1748
bin	1.09648e-05	1697
bin	1.1036e-05	1659
bin	1.11072e-05	1685
bin	1.11784e-05	1622
bin	1.12496e-05	1728
bin	1.13208e-05	1623
bin	1.1392e-05	1615
bin	1.14632e-05	1634
bin	1.15344e-05	1600
bin	1.16056e-05	1579
bin	1.16768e-05	1481
bin	1.1748e-05	1521
bin	1.18192e-05	1495
bin	1.18904e-05	1428
bin	1.19616e-05	1488
bin	1.20328e-05	1493
bin	1.2104e-05	1570
bin	1.21752e-05	1518
bin	1.22464e-05	1573
bin	1.23176e-05	1567
bin	1.23888e-05	1477
bin	1.246e-05	1488
bin	1.25312e-05	1460
bin	1.26024e-05	1425
bin	1.26736e-05	1527
bin	1.27448e-05	1455
bin	1.2816e-05	1363
bin	1.28872e-05	1423
bin	1.29584e-05	1351
bin	1.30296e-05	1420
bin	1.31008e-05	1318
bin	1.3172e-05	1351
bin	1.32432e-05	1340
bin	1.33144e-05	1366
bin	1.33856e-05	1327
bin	1.34568e-05	1327
bin	1.3528e-05	1387
bin	1.35992e-05	1306
bin	1.36704e-05	1359
bin	1.37416e-05	1364
bin	1.38128e-05	1300
bin	1.3884e-05	1361
bin	1.39552e-05	1277
bin	1.40264e-05	1216
bin	1.40976e-05	1228
bin	1.41688e-05	1160
bin	1.424e-05	1220
bin	1.43112e-05	1245
bin	1.43824e-05	1203
bin	1.44536e-05	1220
bin	1.45248e-05	1196
bin	1.4596e-05	1245
bin	1.46672e-05	1303
bin	1.47384e-05	1235
bin	1.48096e-05	1265
bin	1.48808e-05	1195
bin	1.4952e-05	1184
bin	1.50232e-05	1205
bin	1.50944e-05	1237
bin	1.51656e-05	1273
bin	1.52368e-05	1250
bin	1.5308e-05	1145
bin	1.53792e-05	1152
bin	1.54504e-05	1149
bin	1.55216e-05	1176
bin	1.55928e-05	1135
bin	1.5664e-05	1150
bin	1.57352e-05	1136
bin	1.58064e-05	1069
bin	1.58776e-05	1118
bin	1.59488e-05	1103
bin	1.602e-05	1116
bin	1.60912e-05	1104
bin	1.61624e-05	1102
bin	1.62336e-05	1129
bin	1.63048e-05	1140
bin	1.6376e-05	1081
bin	1.64472e-05	1136
bin	1.65184e-05	1074
bin	1.65896e-05	1072
bin	1.66608e-05	1078
bin	1.6732e-05	1006
bin	1.68032e-05	1009
bin	1.68744e-05	1005
bin	1.69456e-05	1049
bin	1.70168e-05	1025
bin	1.7088e-05	958
bin	1.71592e-05	1044
bin	1.72304e-05	1063
bin	1.73016e-05	1036
bin	1.73728e-05	944
bin	1.7444e-05	986
bin	1.75152e-05	967
bin	1.75864e-05	957
bin	1.76576e-05	975
bin	1.77288e-05	933
bin	1.78e-05	960
bin	1.78712e-05	1012
bin	1.79424e-05	991
bin	1.80136e-05	972
bin	1.80848e-05	1008
bin	1.8156e-05	1033
bin	1.82272e-05	993
bin	1.82984e-05	1018
bin	1.83696e-05	1002
bin	1.84408e-05	974
bin	1.8512e-05	957
bin	1.85832e-05	929
bin	1.86544e-05	904
bin	1.87256e-05	900
bin	1.87968e-05	894
bin	1.8868e-05	944
bin	1.89392e-05	892
bin	1.90104e-05	978
bin	1.90816e-05	946
bin	1.91528e-05	924
bin	1.9224e-05	1012
bin	1.92952e-05	971
bin	1.93664e-05	923
bin	1.94376e-05	918
bin	1.95088e-05	894
bin	1.958e-05	866
bin	1.96512e-05	885
bin	1.97224e-05	869
bin	1.97936e-05	850
bin	1.98648e-05	899
bin	1.9936e-05	899
bin	2.00072e-05	910
bin	2.00784e-05	887
bin	2.01496e-05	952
bin	2.02208e-05	947
bin	2.0292e-05	985
bin	2.03632e-05	957
bin	2.04344e-05	952
bin	2.05056e-05	968
bin	2.05768e-05	951
bin	2.0648e-05	926
bin	2.07192e-05	916
bin	2.07904e-05	950
bin	2.08616e-05	886
bin	2.09328e-05	832
bin	2.1004e-05	849
bin	2.10752e-05	849
bin	2.11464e-05	876
bin	2.12176e-05	884
bin	2.12888e-05	862
bin	2.136e-05	890
bin	2.14312e-05	891
bin	2.15024e-05	799
bin	2.15736e-05	809
bin	2.16448e-05	879
bin	2.1716e-05	904
bin	2.17872e-05	950
bin	2.18584e-05	910
bin	2.19296e-05	924
bin	2.20008e-05	948
bin	2.2072e-05	912
bin	2.21432e-05	904
bin	2.22144e-05	915
bin	2.22856e-05	913
bin	2.23568e-05	937
bin	2.2428e-05	911
bin	2.24992e-05	857
bin	2.25704e-05	849
bin	2.26416e-05	838
bin	2.27128e-05	890
bin	2.2784e-05	827
bin	2.28552e-05	837
bin	2.29264e-05	794
bin	2.29976e-05	801
bin	2.30688e-05	824
bin	2.314e-05	793
bin	2.32112e-05	837
bin	2.32824e-05	795
bin	2.33536e-05	835
bin	2.34248e-05	857
bin	2.3496e-05	834
bin	2.35672e-05	839
bin	2.36384e-05	866
bin	2.37096e-05	816
bin	2.37808e-05	812
bin	2.3852e-05	803
bin	2.39232e-05	816
bin	2.39944e-05	829
bin	2.40656e-05	826
bin	2.41368e-05	819
bin	2.4208e-05	871
bin	2.42792e-05	860
bin	2.43504e-05	846
bin	2.44216e-05	790
bin	2.44928e-05	804
bin	2.4564e-05	818
bin	2.46352e-05	789
bin	2.47064e-05	808
bin	2.47776e-05	792
bin	2.48488e-05	768
bin	2.492e-05	797
bin	2.49912e-05	825
bin	2.50624e-05	747
bin	2.51336e-05	813
bin	2.52048e-05	805
bin	2.5276e-05	809
bin	2.53472e-05	778
bin	2.54184e-05	851
bin	2.54896e-05	815
bin	2.55608e-05	847
bin	2.5632e-05	839
bin	2.57032e-05	766
bin	2.57744e-05	835
bin	2.58456e-05	856
bin	2.59168e-05	867
bin	2.5988e-05	849
bin	2.60592e-05	868
bin	2.61304e-05	862
bin	2.62016e-05	840
bin	2.62728e-05	830
bin	2.6344e-05	842
bin	2.64152e-05	878
bin	2.64864e-05	878
bin	2.65576e-05	801
bin	2.66288e-05	782
bin	2.67e-05	841
bin	2.67712e-05	822
bin	2.68424e-05	863
bin	2.69136e-05	841
bin	2.69848e-05	844
bin	2.7056e-05	799
bin	2.71272e-05	837
bin	2.71984e-05	835
bin	2.72696e-05	857
bin	2.73408e-05	797
bin	2.7412e-05	845
bin	2.74832e-05	814
bin	2.75544e-05	894
bin	2.76256e-05	816
bin	2.76968e-05	879
bin	2.7768e-05	837
bin	2.78392e-05	855
bin	2.79104e-05	813
bin	2.79816e-05	752
bin	2.80528e-05	780
bin	2.8124e-05	773
bin	2.81952e-05	790
bin	2.82664e-05	822
bin	2.83376e-05	817
bin	2.84088e-05	859
bin	2.848e-05	815
bin	2.85512e-05	896
bin	2.86224e-05	874
bin	2.86936e-05	847
bin	2.87648e-05	835
bin	2.8836e-05	889
bin	2.89072e-05	882
bin	2.89784e-05	838
bin	2.90496e-05	860
bin	2.91208e-05	842
bin	2.9192e-05	808
bin	2.92632e-05	813
bin	2.93344e-05	811
bin	2.94056e-05	770
bin	2.94768e-05	806
bin	2.9548e-05	844
bin	2.96192e-05	835
bin	2.96904e-05	783
bin	2.97616e-05	738
bin	2.98328e-05	779
bin	2.9904e-05	807
bin	2.99752e-05	884
bin	3.00464e-05	918
bin	3.01176e-05	860
bin	3.01888e-05	843
bin	3.026e-05	873
bin	3.03312e-05	880
bin	3.04024e-05	926
bin	3.04736e-05	935
bin	3.05448e-05	909
bin	3.0616e-05	934
bin	3.06872e-05	879
bin	3.07584e-05	870
bin	3.08296e-05	842
bin	3.09008e-05	855
bin	3.0972e-05	816
bin	3.10432e-05	818
bin	3.11144e-05	781
bin	3.11856e-05	781
bin	3.12568e-05	812
bin	3.1328e-05	788
bin	3.13992e-05	805
bin	3.14704e-05	819
bin	3.15416e-05	751
bin	3.16128e-05	838
bin	3.1684e-05	828
bin	3.17552e-05	845
bin	3.18264e-05	817
bin	3.18976e-05	836
bin	3.19688e-05	854
bin	3.204e-05	862
bin	3.21112e-05	883
bin	3.21824e-05	891
bin	3.22536e-05	863
bin	3.23248e-05	908
bin	3.2396e-05	890
bin	3.24672e-05	900
bin	3.25384e-05	883
bin	3.26096e-05	873
bin	3.26808e-05	843
bin	3.2752e-05	818
bin	3.28232e-05	846
bin	3.28944e-05	791
bin	3.29656e-05	788
bin	3.30368e-05	802
bin	3.3108e-05	885
bin	3.31792e-05	860
bin	3.32504e-05	878
bin	3.33216e-05	921
bin	3.33928e-05	859
bin	3.3464e-05	917
bin	3.35352e-05	919
bin	3.36064e-05	850
bin	3.36776e-05	900
bin	3.37488e-05	886
bin	3.382e-05	868
bin	3.38912e-05	875
bin	3.39624e-05	823
bin	3.40336e-05	798
bin	3.41048e-05	793
bin	3.4176e-05	784
bin	3.42472e-05	853
bin	3.43184e-05	825
bin	3.43896e-05	873
bin	3.44608e-05	816
bin	3.4532e-05	822
bin	3.46032e-05	793
bin	3.46744e-05	764
bin	3.47456e-05	813
bin	3.48168e-05	816
bin	3.4888e-05	816
bin	3.49592e-05	807
bin	3.50304e-05	828
bin	3.51016e-05	838
bin	3.51728e-05	837
bin	3.5244e-05	800
bin	3.53152e-05	840
bin	3.53864e-05	785
bin	3.54576e-05	783
bin	3.55288e-05	793
bin	3.56e-05	4916965
statistic Torus3d_bub.timer 	"Life Times"
field count 6291456
field mean 0.0037139711608537
field stddev 0.0028029335213642
field sum 23366.28614378
field sqrsum 136.21012847453
field min 1.250333333e-06
field max 0.010083696
bin	-INF	0
bin	0	0
bin	8.544e-07	64
bin	1.7088e-06	80
bin	2.5632e-06	236
bin	3.4176e-06	427
bin	4.272e-06	596
bin	5.1264e-06	655
bin	5.9808e-06	953
bin	6.8352e-06	950
bin	7.6896e-06	1150
bin	8.544e-06	1436
bin	9.3984e-06	1750
bin	1.02528e-05	2240
bin	1.11072e-05	2563
bin	1.19616e-05	3097
bin	1.2816e-05	3579
bin	1.36704e-05	3951
bin	1.45248e-05	4410
bin	1.53792e-05	4961
bin	1.62336e-05	5274
bin	1.7088e-05	5588
bin	1.79424e-05	6130
bin	1.87968e-05	6289
bin	1.96512e-05	6375
bin	2.05056e-05	6679
bin	2.136e-05	6659
bin	2.22144e-05	6888
bin	2.30688e-05	7518
bin	2.39232e-05	7751
bin	2.47776e-05	8138
bin	2.5632e-05	8460
bin	2.64864e-05	8865
bin	2.73408e-05	9366
bin	2.81952e-05	9533
bin	2.90496e-05	9972
bin	2.9904e-05	10335
bin	3.07584e-05	10623
bin	3.16128e-05	10973
bin	3.24672e-05	11165
bin	3.33216e-05	11496
bin	3.4176e-05	11910
bin	3.50304e-05	11796
bin	3.58848e-05	11967
bin	3.67392e-05	12463
bin	3.75936e-05	12746
bin	3.8448e-05	12748
bin	3.93024e-05	12888
bin	4.01568e-05	12977
bin	4.10112e-05	13066
bin	4.18656e-05	12602
bin	4.272e-05	12368
bin	4.35744e-05	12361
bin	4.44288e-05	12054
bin	4.52832e-05	12210
bin	4.61376e-05	12319
bin	4.6992e-05	12316
bin	4.78464e-05	12167
bin	4.87008e-05	12126
bin	4.95552e-05	12130
bin	5.04096e-05	12072
bin	5.1264e-05	11833
bin	5.21184e-05	12053
bin	5.29728e-05	11822
bin	5.38272e-05	11570
bin	5.46816e-05	11126
bin	5.5536e-05	10897
bin	5.63904e-05	10610
bin	5.72448e-05	10029
bin	5.80992e-05	9755
bin	5.89536e-05	9521
bin	5.9808e-05	9077
bin	6.06624e-05	8685
bin	6.15168e-05	8692
bin	6.23712e-05	8302
bin	6.32256e-05	8053
bin	6.408e-05	7581
bin	6.49344e-05	7468
bin	6.57888e-05	7310
bin	6.66432e-05	6856
bin	6.74976e-05	6807
bin	6.8352e-05	6583
bin	6.92064e-05	6300
bin	7.00608e-05	6138
bin	7.09152e-05	5977
bin	7.17696e-05	5773
bin	7.2624e-05	5572
bin	7.34784e-05	5482
bin	7.43328e-05	5237
bin	7.51872e-05	5074
bin	7.60416e-05	5124
bin	7.6896e-05	4947
bin	7.77504e-05	4796
bin	7.86048e-05	4644
bin	7.94592e-05	4541
bin	8.03136e-05	4454
bin	8.1168e-05	4478
bin	8.20224e-05	4209
bin	8.28768e-05	4224
bin	8.37312e-05	4157
bin	8.45856e-05	4122
bin	8.544e-05	3958
bin	8.62944e-05	3948
bin	8.71488e-05	3870
bin	8.80032e-05	3843
bin	8.88576e-05	3797
bin	8.9712e-05	3840
bin	9.05664e-05	3670
bin	9.14208e-05	3821
bin	9.22752e-05	3737
bin	9.31296e-05	3753
bin	9.3984e-05	3625
bin	9.48384e-05	3619
bin	9.56928e-05	3625
bin	9.65472e-05	3535
bin	9.74016e-05	3617
bin	9.8256e-05	3477
bin	9.91104e-05	3491
bin	9.99648e-05	3450
bin	0.0001008192	3319
bin	0.0001016736	3303
bin	0.000102528	3398
bin	0.0001033824	3295
bin	0.0001042368	3264
bin	0.0001050912	3200
bin	0.0001059456	3194
bin	0.0001068	3007
bin	0.0001076544	3010
bin	0.0001085088	2919
bin	0.0001093632	2844
bin	0.0001102176	2779
bin	0.000111072	2810
bin	0.0001119264	2677
bin	0.0001127808	2606
bin	0.0001136352	2591
bin	0.0001144896	2510
bin	0.000115344	2464
bin	0.0001161984	2479
bin	0.0001170528	2404
bin	0.0001179072	2332
bin	0.0001187616	2188
bin	0.000119616	2332
bin	0.0001204704	2181
bin	0.0001213248	2212
bin	0.0001221792	2198
bin	0.0001230336	2174
bin	0.000123888	2102
bin	0.0001247424	2132
bin	0.0001255968	1997
bin	0.0001264512	2047
bin	0.0001273056	2073
bin	0.00012816	2002
bin	0.0001290144	1969
bin	0.0001298688	1967
bin	0.0001307232	1883
bin	0.0001315776	1979
bin	0.000132432	1869
bin	0.0001332864	1903
bin	0.0001341408	1959
bin	0.0001349952	1946
bin	0.0001358496	1917
bin	0.000136704	1989
bin	0.0001375584	1984
bin	0.0001384128	1960
bin	0.0001392672	1966
bin	0.0001401216	1934
bin	0.000140976	1928
bin	0.0001418304	1946
bin	0.0001426848	1994
bin	0.0001435392	1891
bin	0.0001443936	1873
bin	0.000145248	1939
bin	0.0001461024	1860
bin	0.0001469568	1871
bin	0.0001478112	1823
bin	0.0001486656	1760
bin	0.00014952	1817
bin	0.0001503744	1718
bin	0.0001512288	1685
bin	0.0001520832	1672
bin	0.0001529376	1658
bin	0.000153792	1642
bin	0.0001546464	1577
bin	0.0001555008	1582
bin	0.0001563552	1481
bin	0.0001572096	1428
bin	0.000158064	1475
bin	0.0001589184	1397
bin	0.0001597728	1423
bin	0.0001606272	1370
bin	0.0001614816	1417
bin	0.000162336	1403
bin	0.0001631904	1421
bin	0.0001640448	1345
bin	0.0001648992	1363
bin	0.0001657536	1380
bin	0.000166608	1378
bin	0.0001674624	1308
bin	0.0001683168	1313
bin	0.0001691712	1387
bin	0.0001700256	1254
bin	0.00017088	1307
bin	0.0001717344	1378
bin	0.0001725888	1311
bin	0.0001734432	1380
bin	0.0001742976	1311
bin	0.000175152	1253
bin	0.0001760064	1333
bin	0.0001768608	1281
bin	0.0001777152	1293
bin	0.0001785696	1290
bin	0.000179424	1284
bin	0.0001802784	1286
bin	0.0001811328	1312
bin	0.0001819872	1283
bin	0.0001828416	1338
bin	0.000183696	1263
bin	0.0001845504	1258
bin	0.0001854048	1238
bin	0.0001862592	1224
bin	0.0001871136	1253
bin	0.000187968	1254
bin	0.0001888224	1206
bin	0.0001896768	1195
bin	0.0001905312	1206
bin	0.0001913856	1165
bin	0.00019224	1145
bin	0.0001930944	1158
bin	0.0001939488	1138
bin	0.0001948032	1131
bin	0.0001956576	1118
bin	0.000196512	1119
bin	0.0001973664	1090
bin	0.0001982208	1135
bin	0.0001990752	1090
bin	0.0001999296	1125
bin	0.000200784	1012
bin	0.0002016384	1055
bin	0.0002024928	1066
bin	0.0002033472	1015
bin	0.0002042016	985
bin	0.000205056	1002
bin	0.0002059104	984
bin	0.0002067648	952
bin	0.0002076192	990
bin	0.0002084736	958
bin	0.000209328	1002
bin	0.0002101824	1035
bin	0.0002110368	989
bin	0.0002118912	1001
bin	0.0002127456	982
bin	0.0002136	991
bin	0.0002144544	973
bin	0.0002153088	1017
bin	0.0002161632	955
bin	0.0002170176	991
bin	0.000217872	964
bin	0.0002187264	983
bin	0.0002195808	966
bin	0.0002204352	975
bin	0.0002212896	1000
bin	0.000222144	980
bin	0.0002229984	972
bin	0.0002238528	972
bin	0.0002247072	967
bin	0.0002255616	990
bin	0.000226416	901
bin	0.0002272704	954
bin	0.0002281248	942
bin	0.0002289792	937
bin	0.0002298336	908
bin	0.000230688	945
bin	0.0002315424	930
bin	0.0002323968	912
bin	0.0002332512	921
bin	0.0002341056	886
bin	0.00023496	898
bin	0.0002358144	886
bin	0.0002366688	908
bin	0.0002375232	895
bin	0.0002383776	883
bin	0.000239232	835
bin	0.0002400864	841
bin	0.0002409408	887
bin	0.0002417952	833
bin	0.0002426496	871
bin	0.000243504	874
bin	0.0002443584	832
bin	0.0002452128	796
bin	0.0002460672	766
bin	0.0002469216	751
bin	0.000247776	781
bin	0.0002486304	819
bin	0.0002494848	810
bin	0.0002503392	816
bin	0.0002511936	766
bin	0.000252048	778
bin	0.0002529024	797
bin	0.0002537568	781
bin	0.0002546112	760
bin	0.0002554656	752
bin	0.00025632	755
bin	0.0002571744	792
bin	0.0002580288	789
bin	0.0002588832	800
bin	0.0002597376	817
bin	0.000260592	776
bin	0.0002614464	753
bin	0.0002623008	838
bin	0.0002631552	802
bin	0.0002640096	807
bin	0.000264864	795
bin	0.0002657184	787
bin	0.0002665728	748
bin	0.0002674272	751
bin	0.0002682816	753
bin	0.000269136	729
bin	0.0002699904	790
bin	0.0002708448	777
bin	0.0002716992	782
bin	0.0002725536	731
bin	0.000273408	740
bin	0.0002742624	738
bin	0.0002751168	781
bin	0.0002759712	829
bin	0.0002768256	710
bin	0.00027768	692
bin	0.0002785344	743
bin	0.0002793888	686
bin	0.0002802432	678
bin	0.0002810976	670
bin	0.000281952	671
bin	0.0002828064	660
bin	0.0002836608	703
bin	0.0002845152	690
bin	0.0002853696	697
bin	0.000286224	677
bin	0.0002870784	678
bin	0.0002879328	715
bin	0.0002887872	735
bin	0.0002896416	673
bin	0.000290496	647
bin	0.0002913504	647
bin	0.0002922048	691
bin	0.0002930592	661
bin	0.0002939136	667
bin	0.000294768	671
bin	0.0002956224	663
bin	0.0002964768	704
bin	0.0002973312	683
bin	0.0002981856	722
bin	0.00029904	708
bin	0.0002998944	668
bin	0.0003007488	735
bin	0.0003016032	729
bin	0.0003024576	705
bin	0.000303312	749
bin	0.0003041664	700
bin	0.0003050208	688
bin	0.0003058752	750
bin	0.0003067296	716
bin	0.000307584	685
bin	0.0003084384	667
bin	0.0003092928	672
bin	0.0003101472	659
bin	0.0003110016	646
bin	0.000311856	627
bin	0.0003127104	672
bin	0.0003135648	616
bin	0.0003144192	655
bin	0.0003152736	606
bin	0.000316128	615
bin	0.0003169824	620
bin	0.0003178368	572
bin	0.0003186912	616
bin	0.0003195456	617
bin	0.0003204	575
bin	0.0003212544	605
bin	0.0003221088	574
bin	0.0003229632	564
bin	0.0003238176	576
bin	0.000324672	558
bin	0.0003255264	628
bin	0.0003263808	609
bin	0.0003272352	624
bin	0.0003280896	596
bin	0.000328944	598
bin	0.0003297984	592
bin	0.0003306528	643
bin	0.0003315072	589
bin	0.0003323616	606
bin	0.000333216	614
bin	0.0003340704	594
bin	0.0003349248	614
bin	0.0003357792	585
bin	0.0003366336	627
bin	0.000337488	642
bin	0.0003383424	605
bin	0.0003391968	574
bin	0.0003400512	616
bin	0.0003409056	619
bin	0.00034176	587
bin	0.0003426144	617
bin	0.0003434688	679
bin	0.0003443232	663
bin	0.0003451776	612
bin	0.000346032	630
bin	0.0003468864	595
bin	0.0003477408	629
bin	0.0003485952	597
bin	0.0003494496	565
bin	0.000350304	578
bin	0.0003511584	532
bin	0.0003520128	545
bin	0.0003528672	574
bin	0.0003537216	589
bin	0.000354576	545
bin	0.0003554304	519
bin	0.0003562848	562
bin	0.0003571392	572
bin	0.0003579936	587
bin	0.000358848	572
bin	0.0003597024	582
bin	0.0003605568	606
bin	0.0003614112	570
bin	0.0003622656	615
bin	0.00036312	591
bin	0.0003639744	558
bin	0.0003648288	580
bin	0.0003656832	579
bin	0.0003665376	554
bin	0.000367392	584
bin	0.0003682464	570
bin	0.0003691008	565
bin	0.0003699552	572
bin	0.0003708096	591
bin	0.000371664	591
bin	0.0003725184	565
bin	0.0003733728	561
bin	0.0003742272	561
bin	0.0003750816	573
bin	0.000375936	548
bin	0.0003767904	527
bin	0.0003776448	598
bin	0.0003784992	576
bin	0.0003793536	583
bin	0.000380208	616
bin	0.0003810624	570
bin	0.0003819168	610
bin	0.0003827712	589
bin	0.0003836256	598
bin	0.00038448	537
bin	0.0003853344	586
bin	0.0003861888	562
bin	0.0003870432	583
bin	0.0003878976	584
bin	0.000388752	576
bin	0.0003896064	553
bin	0.0003904608	520
bin	0.0003913152	590
bin	0.0003921696	585
bin	0.000393024	562
bin	0.0003938784	540
bin	0.0003947328	560
bin	0.0003955872	577
bin	0.0003964416	545
bin	0.000397296	595
bin	0.0003981504	586
bin	0.0003990048	600
bin	0.0003998592	540
bin	0.0004007136	583
bin	0.000401568	542
bin	0.0004024224	566
bin	0.0004032768	517
bin	0.0004041312	532
bin	0.0004049856	495
bin	0.00040584	494
bin	0.0004066944	514
bin	0.0004075488	560
bin	0.0004084032	500
bin	0.0004092576	505
bin	0.000410112	494
bin	0.0004109664	506
bin	0.0004118208	502
bin	0.0004126752	502
bin	0.0004135296	504
bin	0.000414384	483
bin	0.0004152384	514
bin	0.0004160928	526
bin	0.0004169472	491
bin	0.0004178016	503
bin	0.000418656	527
bin	0.0004195104	508
bin	0.0004203648	538
bin	0.0004212192	493
bin	0.0004220736	498
bin	0.000422928	508
bin	0.0004237824	495
bin	0.0004246368	555
bin	0.0004254912	546
bin	0.0004263456	545
bin	0.0004272	5084493
