version 2
run Bitcomplement-44-20120709-21:50:36-24935
attr alg 0
attr buf 8
attr configname Bitcomplement
attr datetime 20120709-21:50:36
attr delta 0.6
attr experiment Bitcomplement
attr ext false
attr inifile altro.ini
attr iterationvars "$buf=8, $ext=false, $ofedge=2, $delta=0.6, $alg=0"
attr iterationvars2 "$buf=8, $ext=false, $ofedge=2, $delta=0.6, $alg=0, $repetition=0"
attr measurement "$buf=8, $ext=false, $ofedge=2, $delta=0.6, $alg=0"
attr network Torus3d_bub
attr ofedge 2
attr processid 24935
attr repetition 0
attr replication #0
attr resultdir altro-results
attr runnumber 44
attr seedset 44

scalar . 	alg 	0
scalar . 	buf 	8
scalar . 	delta 	0.6
scalar . 	ofedge 	2
scalar Torus3d_bub.timer 	#endTime 	0.005067708325417
scalar Torus3d_bub.timer 	#totalHops 	75497472
scalar Torus3d_bub.timer 	#totalPacks 	6291456
scalar Torus3d_bub.timer 	#totalDerouted 	0
scalar Torus3d_bub.timer 	#totalOutFlanked 	0
scalar Torus3d_bub.timer 	#totalCQRed 	0
scalar Torus3d_bub.timer 	#LB 	0.000786432
scalar Torus3d_bub.timer 	#ratio 	0.15518493754971
statistic Torus3d_bub.timer 	"Hop Times"
field count 6291456
field mean 0.00013914467308226
field stddev 0.00020718179204694
field sum 875.42258833145
field sqrsum 0.39186665998323
field min 4.16317456e-07
field max 0.001634173666666
bin	-INF	0
bin	0	0
bin	7.12e-08	0
bin	1.424e-07	0
bin	2.136e-07	0
bin	2.848e-07	0
bin	3.56e-07	27
bin	4.272e-07	1170
bin	4.984e-07	5814
bin	5.696e-07	13406
bin	6.408e-07	21273
bin	7.12e-07	31767
bin	7.832e-07	39953
bin	8.544e-07	47078
bin	9.256e-07	52156
bin	9.968e-07	53497
bin	1.068e-06	53209
bin	1.1392e-06	52202
bin	1.2104e-06	51010
bin	1.2816e-06	48760
bin	1.3528e-06	46894
bin	1.424e-06	46943
bin	1.4952e-06	48328
bin	1.5664e-06	49494
bin	1.6376e-06	50095
bin	1.7088e-06	49355
bin	1.78e-06	49405
bin	1.8512e-06	50022
bin	1.9224e-06	51302
bin	1.9936e-06	51778
bin	2.0648e-06	53171
bin	2.136e-06	54667
bin	2.2072e-06	56315
bin	2.2784e-06	56429
bin	2.3496e-06	56129
bin	2.4208e-06	55516
bin	2.492e-06	53568
bin	2.5632e-06	51521
bin	2.6344e-06	49227
bin	2.7056e-06	46513
bin	2.7768e-06	44027
bin	2.848e-06	41838
bin	2.9192e-06	39626
bin	2.9904e-06	36023
bin	3.0616e-06	33480
bin	3.1328e-06	31194
bin	3.204e-06	28722
bin	3.2752e-06	25495
bin	3.3464e-06	24338
bin	3.4176e-06	21472
bin	3.4888e-06	20290
bin	3.56e-06	18367
bin	3.6312e-06	17044
bin	3.7024e-06	15196
bin	3.7736e-06	13665
bin	3.8448e-06	11750
bin	3.916e-06	10077
bin	3.9872e-06	8179
bin	4.0584e-06	7074
bin	4.1296e-06	6289
bin	4.2008e-06	5896
bin	4.272e-06	5568
bin	4.3432e-06	5224
bin	4.4144e-06	5050
bin	4.4856e-06	4640
bin	4.5568e-06	4380
bin	4.628e-06	4354
bin	4.6992e-06	4492
bin	4.7704e-06	4133
bin	4.8416e-06	4111
bin	4.9128e-06	3956
bin	4.984e-06	3685
bin	5.0552e-06	3693
bin	5.1264e-06	3917
bin	5.1976e-06	3775
bin	5.2688e-06	3789
bin	5.34e-06	3735
bin	5.4112e-06	3830
bin	5.4824e-06	3912
bin	5.5536e-06	3783
bin	5.6248e-06	3879
bin	5.696e-06	3639
bin	5.7672e-06	3597
bin	5.8384e-06	3633
bin	5.9096e-06	3905
bin	5.9808e-06	4248
bin	6.052e-06	4491
bin	6.1232e-06	4818
bin	6.1944e-06	4977
bin	6.2656e-06	5406
bin	6.3368e-06	5481
bin	6.408e-06	5580
bin	6.4792e-06	5444
bin	6.5504e-06	5693
bin	6.6216e-06	5731
bin	6.6928e-06	5673
bin	6.764e-06	5594
bin	6.8352e-06	5451
bin	6.9064e-06	4898
bin	6.9776e-06	4466
bin	7.0488e-06	4092
bin	7.12e-06	3282
bin	7.1912e-06	2812
bin	7.2624e-06	2571
bin	7.3336e-06	2303
bin	7.4048e-06	2200
bin	7.476e-06	2150
bin	7.5472e-06	1924
bin	7.6184e-06	1771
bin	7.6896e-06	1801
bin	7.7608e-06	1822
bin	7.832e-06	1989
bin	7.9032e-06	1925
bin	7.9744e-06	2019
bin	8.0456e-06	1946
bin	8.1168e-06	1903
bin	8.188e-06	1897
bin	8.2592e-06	1904
bin	8.3304e-06	2016
bin	8.4016e-06	2043
bin	8.4728e-06	2077
bin	8.544e-06	2105
bin	8.6152e-06	2120
bin	8.6864e-06	2059
bin	8.7576e-06	2136
bin	8.8288e-06	2204
bin	8.9e-06	2266
bin	8.9712e-06	2307
bin	9.0424e-06	2399
bin	9.1136e-06	2543
bin	9.1848e-06	2713
bin	9.256e-06	2966
bin	9.3272e-06	2844
bin	9.3984e-06	3021
bin	9.4696e-06	3106
bin	9.5408e-06	3276
bin	9.612e-06	3344
bin	9.6832e-06	3714
bin	9.7544e-06	3788
bin	9.8256e-06	4004
bin	9.8968e-06	4011
bin	9.968e-06	3939
bin	1.00392e-05	3656
bin	1.01104e-05	3352
bin	1.01816e-05	2985
bin	1.02528e-05	2384
bin	1.0324e-05	2053
bin	1.03952e-05	1804
bin	1.04664e-05	1556
bin	1.05376e-05	1463
bin	1.06088e-05	1492
bin	1.068e-05	1349
bin	1.07512e-05	1279
bin	1.08224e-05	1254
bin	1.08936e-05	1239
bin	1.09648e-05	1338
bin	1.1036e-05	1458
bin	1.11072e-05	1530
bin	1.11784e-05	1512
bin	1.12496e-05	1672
bin	1.13208e-05	1687
bin	1.1392e-05	1728
bin	1.14632e-05	1794
bin	1.15344e-05	1815
bin	1.16056e-05	1954
bin	1.16768e-05	1893
bin	1.1748e-05	1989
bin	1.18192e-05	1873
bin	1.18904e-05	1794
bin	1.19616e-05	1623
bin	1.20328e-05	1486
bin	1.2104e-05	1259
bin	1.21752e-05	1271
bin	1.22464e-05	1359
bin	1.23176e-05	1373
bin	1.23888e-05	1651
bin	1.246e-05	1807
bin	1.25312e-05	2110
bin	1.26024e-05	2225
bin	1.26736e-05	2784
bin	1.27448e-05	2717
bin	1.2816e-05	3184
bin	1.28872e-05	3079
bin	1.29584e-05	3411
bin	1.30296e-05	3341
bin	1.31008e-05	3581
bin	1.3172e-05	3251
bin	1.32432e-05	3008
bin	1.33144e-05	2656
bin	1.33856e-05	2143
bin	1.34568e-05	1832
bin	1.3528e-05	1745
bin	1.35992e-05	1562
bin	1.36704e-05	1571
bin	1.37416e-05	1605
bin	1.38128e-05	1586
bin	1.3884e-05	1472
bin	1.39552e-05	1429
bin	1.40264e-05	1407
bin	1.40976e-05	1486
bin	1.41688e-05	1494
bin	1.424e-05	1513
bin	1.43112e-05	1482
bin	1.43824e-05	1548
bin	1.44536e-05	1596
bin	1.45248e-05	1486
bin	1.4596e-05	1380
bin	1.46672e-05	1321
bin	1.47384e-05	1178
bin	1.48096e-05	945
bin	1.48808e-05	916
bin	1.4952e-05	768
bin	1.50232e-05	847
bin	1.50944e-05	725
bin	1.51656e-05	762
bin	1.52368e-05	822
bin	1.5308e-05	825
bin	1.53792e-05	1013
bin	1.54504e-05	1085
bin	1.55216e-05	1313
bin	1.55928e-05	1512
bin	1.5664e-05	1811
bin	1.57352e-05	1915
bin	1.58064e-05	2240
bin	1.58776e-05	2145
bin	1.59488e-05	2460
bin	1.602e-05	2352
bin	1.60912e-05	2619
bin	1.61624e-05	2451
bin	1.62336e-05	2609
bin	1.63048e-05	2518
bin	1.6376e-05	2428
bin	1.64472e-05	2281
bin	1.65184e-05	1898
bin	1.65896e-05	1766
bin	1.66608e-05	1572
bin	1.6732e-05	1440
bin	1.68032e-05	1344
bin	1.68744e-05	1273
bin	1.69456e-05	1238
bin	1.70168e-05	1174
bin	1.7088e-05	1141
bin	1.71592e-05	1095
bin	1.72304e-05	1126
bin	1.73016e-05	1078
bin	1.73728e-05	1009
bin	1.7444e-05	956
bin	1.75152e-05	881
bin	1.75864e-05	788
bin	1.76576e-05	754
bin	1.77288e-05	723
bin	1.78e-05	657
bin	1.78712e-05	594
bin	1.79424e-05	584
bin	1.80136e-05	607
bin	1.80848e-05	567
bin	1.8156e-05	574
bin	1.82272e-05	563
bin	1.82984e-05	516
bin	1.83696e-05	527
bin	1.84408e-05	526
bin	1.8512e-05	615
bin	1.85832e-05	639
bin	1.86544e-05	814
bin	1.87256e-05	1000
bin	1.87968e-05	1277
bin	1.8868e-05	1342
bin	1.89392e-05	1626
bin	1.90104e-05	1763
bin	1.90816e-05	1976
bin	1.91528e-05	1977
bin	1.9224e-05	2375
bin	1.92952e-05	2230
bin	1.93664e-05	2464
bin	1.94376e-05	2263
bin	1.95088e-05	2200
bin	1.958e-05	2031
bin	1.96512e-05	1723
bin	1.97224e-05	1411
bin	1.97936e-05	1318
bin	1.98648e-05	1219
bin	1.9936e-05	1123
bin	2.00072e-05	1038
bin	2.00784e-05	940
bin	2.01496e-05	806
bin	2.02208e-05	757
bin	2.0292e-05	659
bin	2.03632e-05	638
bin	2.04344e-05	607
bin	2.05056e-05	534
bin	2.05768e-05	569
bin	2.0648e-05	575
bin	2.07192e-05	599
bin	2.07904e-05	522
bin	2.08616e-05	610
bin	2.09328e-05	514
bin	2.1004e-05	638
bin	2.10752e-05	666
bin	2.11464e-05	691
bin	2.12176e-05	712
bin	2.12888e-05	688
bin	2.136e-05	677
bin	2.14312e-05	698
bin	2.15024e-05	698
bin	2.15736e-05	650
bin	2.16448e-05	725
bin	2.1716e-05	767
bin	2.17872e-05	860
bin	2.18584e-05	1034
bin	2.19296e-05	1065
bin	2.20008e-05	1173
bin	2.2072e-05	1264
bin	2.21432e-05	1340
bin	2.22144e-05	1442
bin	2.22856e-05	1476
bin	2.23568e-05	1659
bin	2.2428e-05	1629
bin	2.24992e-05	1891
bin	2.25704e-05	1722
bin	2.26416e-05	1698
bin	2.27128e-05	1662
bin	2.2784e-05	1481
bin	2.28552e-05	1223
bin	2.29264e-05	1135
bin	2.29976e-05	1070
bin	2.30688e-05	962
bin	2.314e-05	862
bin	2.32112e-05	875
bin	2.32824e-05	854
bin	2.33536e-05	796
bin	2.34248e-05	747
bin	2.3496e-05	726
bin	2.35672e-05	692
bin	2.36384e-05	683
bin	2.37096e-05	667
bin	2.37808e-05	604
bin	2.3852e-05	592
bin	2.39232e-05	546
bin	2.39944e-05	622
bin	2.40656e-05	546
bin	2.41368e-05	526
bin	2.4208e-05	538
bin	2.42792e-05	553
bin	2.43504e-05	509
bin	2.44216e-05	501
bin	2.44928e-05	510
bin	2.4564e-05	464
bin	2.46352e-05	534
bin	2.47064e-05	537
bin	2.47776e-05	533
bin	2.48488e-05	533
bin	2.492e-05	668
bin	2.49912e-05	771
bin	2.50624e-05	920
bin	2.51336e-05	1006
bin	2.52048e-05	1059
bin	2.5276e-05	1179
bin	2.53472e-05	1292
bin	2.54184e-05	1341
bin	2.54896e-05	1533
bin	2.55608e-05	1529
bin	2.5632e-05	1686
bin	2.57032e-05	1510
bin	2.57744e-05	1415
bin	2.58456e-05	1202
bin	2.59168e-05	1197
bin	2.5988e-05	976
bin	2.60592e-05	914
bin	2.61304e-05	834
bin	2.62016e-05	807
bin	2.62728e-05	718
bin	2.6344e-05	656
bin	2.64152e-05	590
bin	2.64864e-05	553
bin	2.65576e-05	595
bin	2.66288e-05	604
bin	2.67e-05	616
bin	2.67712e-05	590
bin	2.68424e-05	633
bin	2.69136e-05	606
bin	2.69848e-05	613
bin	2.7056e-05	575
bin	2.71272e-05	585
bin	2.71984e-05	536
bin	2.72696e-05	579
bin	2.73408e-05	517
bin	2.7412e-05	450
bin	2.74832e-05	493
bin	2.75544e-05	444
bin	2.76256e-05	445
bin	2.76968e-05	381
bin	2.7768e-05	437
bin	2.78392e-05	369
bin	2.79104e-05	441
bin	2.79816e-05	436
bin	2.80528e-05	520
bin	2.8124e-05	579
bin	2.81952e-05	680
bin	2.82664e-05	752
bin	2.83376e-05	820
bin	2.84088e-05	919
bin	2.848e-05	886
bin	2.85512e-05	944
bin	2.86224e-05	1089
bin	2.86936e-05	1118
bin	2.87648e-05	1212
bin	2.8836e-05	1137
bin	2.89072e-05	1193
bin	2.89784e-05	1053
bin	2.90496e-05	1086
bin	2.91208e-05	946
bin	2.9192e-05	828
bin	2.92632e-05	751
bin	2.93344e-05	714
bin	2.94056e-05	624
bin	2.94768e-05	590
bin	2.9548e-05	463
bin	2.96192e-05	405
bin	2.96904e-05	427
bin	2.97616e-05	379
bin	2.98328e-05	415
bin	2.9904e-05	390
bin	2.99752e-05	434
bin	3.00464e-05	385
bin	3.01176e-05	444
bin	3.01888e-05	413
bin	3.026e-05	429
bin	3.03312e-05	465
bin	3.04024e-05	523
bin	3.04736e-05	544
bin	3.05448e-05	567
bin	3.0616e-05	612
bin	3.06872e-05	532
bin	3.07584e-05	597
bin	3.08296e-05	557
bin	3.09008e-05	568
bin	3.0972e-05	556
bin	3.10432e-05	599
bin	3.11144e-05	593
bin	3.11856e-05	568
bin	3.12568e-05	581
bin	3.1328e-05	582
bin	3.13992e-05	590
bin	3.14704e-05	537
bin	3.15416e-05	598
bin	3.16128e-05	610
bin	3.1684e-05	653
bin	3.17552e-05	696
bin	3.18264e-05	688
bin	3.18976e-05	841
bin	3.19688e-05	761
bin	3.204e-05	871
bin	3.21112e-05	810
bin	3.21824e-05	911
bin	3.22536e-05	812
bin	3.23248e-05	779
bin	3.2396e-05	734
bin	3.24672e-05	739
bin	3.25384e-05	728
bin	3.26096e-05	693
bin	3.26808e-05	664
bin	3.2752e-05	620
bin	3.28232e-05	609
bin	3.28944e-05	537
bin	3.29656e-05	567
bin	3.30368e-05	501
bin	3.3108e-05	494
bin	3.31792e-05	479
bin	3.32504e-05	454
bin	3.33216e-05	422
bin	3.33928e-05	403
bin	3.3464e-05	427
bin	3.35352e-05	429
bin	3.36064e-05	486
bin	3.36776e-05	482
bin	3.37488e-05	554
bin	3.382e-05	523
bin	3.38912e-05	595
bin	3.39624e-05	563
bin	3.40336e-05	550
bin	3.41048e-05	586
bin	3.4176e-05	594
bin	3.42472e-05	634
bin	3.43184e-05	626
bin	3.43896e-05	694
bin	3.44608e-05	723
bin	3.4532e-05	781
bin	3.46032e-05	720
bin	3.46744e-05	738
bin	3.47456e-05	732
bin	3.48168e-05	770
bin	3.4888e-05	794
bin	3.49592e-05	822
bin	3.50304e-05	893
bin	3.51016e-05	849
bin	3.51728e-05	858
bin	3.5244e-05	764
bin	3.53152e-05	778
bin	3.53864e-05	704
bin	3.54576e-05	617
bin	3.55288e-05	592
bin	3.56e-05	3658080
statistic Torus3d_bub.timer 	"Life Times"
field count 6291456
field mean 0.0010402138507176
field stddev 0.0010200785970407
field sum 6544.4596723804
field sqrsum 13.354276176618
field min 1.250333333e-06
field max 0.004904617
bin	-INF	0
bin	0	0
bin	8.544e-07	64
bin	1.7088e-06	80
bin	2.5632e-06	236
bin	3.4176e-06	416
bin	4.272e-06	820
bin	5.1264e-06	1015
bin	5.9808e-06	1875
bin	6.8352e-06	3095
bin	7.6896e-06	5347
bin	8.544e-06	8700
bin	9.3984e-06	12498
bin	1.02528e-05	17788
bin	1.11072e-05	22832
bin	1.19616e-05	26111
bin	1.2816e-05	28553
bin	1.36704e-05	29927
bin	1.45248e-05	30500
bin	1.53792e-05	29935
bin	1.62336e-05	29253
bin	1.7088e-05	29758
bin	1.79424e-05	31044
bin	1.87968e-05	31288
bin	1.96512e-05	31390
bin	2.05056e-05	31236
bin	2.136e-05	31533
bin	2.22144e-05	32538
bin	2.30688e-05	33733
bin	2.39232e-05	34564
bin	2.47776e-05	36998
bin	2.5632e-05	38408
bin	2.64864e-05	40334
bin	2.73408e-05	42138
bin	2.81952e-05	43437
bin	2.90496e-05	44793
bin	2.9904e-05	45209
bin	3.07584e-05	46167
bin	3.16128e-05	46924
bin	3.24672e-05	47455
bin	3.33216e-05	48332
bin	3.4176e-05	48288
bin	3.50304e-05	48405
bin	3.58848e-05	48884
bin	3.67392e-05	48972
bin	3.75936e-05	48556
bin	3.8448e-05	48142
bin	3.93024e-05	47710
bin	4.01568e-05	46882
bin	4.10112e-05	45846
bin	4.18656e-05	44610
bin	4.272e-05	44017
bin	4.35744e-05	43206
bin	4.44288e-05	40778
bin	4.52832e-05	39565
bin	4.61376e-05	37550
bin	4.6992e-05	36080
bin	4.78464e-05	32946
bin	4.87008e-05	30172
bin	4.95552e-05	27809
bin	5.04096e-05	24456
bin	5.1264e-05	21407
bin	5.21184e-05	18449
bin	5.29728e-05	16038
bin	5.38272e-05	13966
bin	5.46816e-05	12088
bin	5.5536e-05	10197
bin	5.63904e-05	9174
bin	5.72448e-05	7923
bin	5.80992e-05	6499
bin	5.89536e-05	5417
bin	5.9808e-05	4539
bin	6.06624e-05	3928
bin	6.15168e-05	3411
bin	6.23712e-05	3019
bin	6.32256e-05	2688
bin	6.408e-05	2179
bin	6.49344e-05	1833
bin	6.57888e-05	1616
bin	6.66432e-05	1426
bin	6.74976e-05	1343
bin	6.8352e-05	1131
bin	6.92064e-05	1049
bin	7.00608e-05	966
bin	7.09152e-05	1057
bin	7.17696e-05	1000
bin	7.2624e-05	918
bin	7.34784e-05	1041
bin	7.43328e-05	1144
bin	7.51872e-05	1368
bin	7.60416e-05	1684
bin	7.6896e-05	2063
bin	7.77504e-05	2726
bin	7.86048e-05	3206
bin	7.94592e-05	3816
bin	8.03136e-05	4531
bin	8.1168e-05	5302
bin	8.20224e-05	6035
bin	8.28768e-05	6443
bin	8.37312e-05	6838
bin	8.45856e-05	7451
bin	8.544e-05	7590
bin	8.62944e-05	7774
bin	8.71488e-05	8127
bin	8.80032e-05	8323
bin	8.88576e-05	8244
bin	8.9712e-05	7636
bin	9.05664e-05	7262
bin	9.14208e-05	6762
bin	9.22752e-05	5757
bin	9.31296e-05	5103
bin	9.3984e-05	4707
bin	9.48384e-05	4188
bin	9.56928e-05	3715
bin	9.65472e-05	3393
bin	9.74016e-05	3014
bin	9.8256e-05	2793
bin	9.91104e-05	2326
bin	9.99648e-05	2039
bin	0.0001008192	1718
bin	0.0001016736	1576
bin	0.000102528	1386
bin	0.0001033824	1337
bin	0.0001042368	1178
bin	0.0001050912	990
bin	0.0001059456	947
bin	0.0001068	830
bin	0.0001076544	824
bin	0.0001085088	733
bin	0.0001093632	689
bin	0.0001102176	684
bin	0.000111072	612
bin	0.0001119264	557
bin	0.0001127808	557
bin	0.0001136352	562
bin	0.0001144896	567
bin	0.000115344	670
bin	0.0001161984	719
bin	0.0001170528	884
bin	0.0001179072	1088
bin	0.0001187616	1411
bin	0.000119616	1782
bin	0.0001204704	2074
bin	0.0001213248	2318
bin	0.0001221792	2660
bin	0.0001230336	3010
bin	0.000123888	3224
bin	0.0001247424	3593
bin	0.0001255968	4144
bin	0.0001264512	4410
bin	0.0001273056	4535
bin	0.00012816	4907
bin	0.0001290144	5177
bin	0.0001298688	4822
bin	0.0001307232	4548
bin	0.0001315776	4411
bin	0.000132432	4013
bin	0.0001332864	3533
bin	0.0001341408	3123
bin	0.0001349952	3006
bin	0.0001358496	2641
bin	0.000136704	2304
bin	0.0001375584	2266
bin	0.0001384128	2136
bin	0.0001392672	1783
bin	0.0001401216	1508
bin	0.000140976	1333
bin	0.0001418304	1251
bin	0.0001426848	1038
bin	0.0001435392	1056
bin	0.0001443936	1043
bin	0.000145248	975
bin	0.0001461024	948
bin	0.0001469568	830
bin	0.0001478112	817
bin	0.0001486656	791
bin	0.00014952	706
bin	0.0001503744	739
bin	0.0001512288	773
bin	0.0001520832	711
bin	0.0001529376	652
bin	0.000153792	701
bin	0.0001546464	681
bin	0.0001555008	661
bin	0.0001563552	724
bin	0.0001572096	781
bin	0.000158064	812
bin	0.0001589184	933
bin	0.0001597728	1078
bin	0.0001606272	1391
bin	0.0001614816	1512
bin	0.000162336	1679
bin	0.0001631904	2119
bin	0.0001640448	2423
bin	0.0001648992	2666
bin	0.0001657536	2941
bin	0.000166608	3369
bin	0.0001674624	3447
bin	0.0001683168	3470
bin	0.0001691712	3792
bin	0.0001700256	4185
bin	0.00017088	3946
bin	0.0001717344	3669
bin	0.0001725888	3646
bin	0.0001734432	3268
bin	0.0001742976	2778
bin	0.000175152	2410
bin	0.0001760064	2403
bin	0.0001768608	2129
bin	0.0001777152	2023
bin	0.0001785696	1931
bin	0.000179424	1748
bin	0.0001802784	1530
bin	0.0001811328	1288
bin	0.0001819872	1139
bin	0.0001828416	1049
bin	0.000183696	953
bin	0.0001845504	915
bin	0.0001854048	903
bin	0.0001862592	778
bin	0.0001871136	789
bin	0.000187968	794
bin	0.0001888224	736
bin	0.0001896768	659
bin	0.0001905312	669
bin	0.0001913856	667
bin	0.00019224	648
bin	0.0001930944	626
bin	0.0001939488	622
bin	0.0001948032	629
bin	0.0001956576	630
bin	0.000196512	584
bin	0.0001973664	643
bin	0.0001982208	605
bin	0.0001990752	664
bin	0.0001999296	690
bin	0.000200784	856
bin	0.0002016384	1067
bin	0.0002024928	1256
bin	0.0002033472	1503
bin	0.0002042016	1783
bin	0.000205056	2055
bin	0.0002059104	2165
bin	0.0002067648	2313
bin	0.0002076192	2589
bin	0.0002084736	2669
bin	0.000209328	2654
bin	0.0002101824	2824
bin	0.0002110368	2969
bin	0.0002118912	2905
bin	0.0002127456	2736
bin	0.0002136	2636
bin	0.0002144544	2346
bin	0.0002153088	2091
bin	0.0002161632	1950
bin	0.0002170176	1850
bin	0.000217872	1733
bin	0.0002187264	1507
bin	0.0002195808	1496
bin	0.0002204352	1368
bin	0.0002212896	1199
bin	0.000222144	1016
bin	0.0002229984	848
bin	0.0002238528	759
bin	0.0002247072	742
bin	0.0002255616	757
bin	0.000226416	678
bin	0.0002272704	705
bin	0.0002281248	662
bin	0.0002289792	658
bin	0.0002298336	612
bin	0.000230688	613
bin	0.0002315424	615
bin	0.0002323968	559
bin	0.0002332512	541
bin	0.0002341056	524
bin	0.00023496	579
bin	0.0002358144	552
bin	0.0002366688	552
bin	0.0002375232	532
bin	0.0002383776	518
bin	0.000239232	512
bin	0.0002400864	537
bin	0.0002409408	623
bin	0.0002417952	684
bin	0.0002426496	816
bin	0.000243504	984
bin	0.0002443584	1214
bin	0.0002452128	1349
bin	0.0002460672	1567
bin	0.0002469216	1720
bin	0.000247776	1760
bin	0.0002486304	1914
bin	0.0002494848	1978
bin	0.0002503392	2058
bin	0.0002511936	2146
bin	0.000252048	2263
bin	0.0002529024	2081
bin	0.0002537568	1908
bin	0.0002546112	1904
bin	0.0002554656	1640
bin	0.00025632	1355
bin	0.0002571744	1285
bin	0.0002580288	1248
bin	0.0002588832	1099
bin	0.0002597376	1101
bin	0.000260592	957
bin	0.0002614464	881
bin	0.0002623008	833
bin	0.0002631552	738
bin	0.0002640096	681
bin	0.000264864	641
bin	0.0002657184	631
bin	0.0002665728	569
bin	0.0002674272	557
bin	0.0002682816	519
bin	0.000269136	559
bin	0.0002699904	498
bin	0.0002708448	510
bin	0.0002716992	519
bin	0.0002725536	506
bin	0.000273408	508
bin	0.0002742624	493
bin	0.0002751168	552
bin	0.0002759712	521
bin	0.0002768256	515
bin	0.00027768	479
bin	0.0002785344	546
bin	0.0002793888	527
bin	0.0002802432	491
bin	0.0002810976	545
bin	0.000281952	597
bin	0.0002828064	701
bin	0.0002836608	804
bin	0.0002845152	953
bin	0.0002853696	1072
bin	0.000286224	1247
bin	0.0002870784	1327
bin	0.0002879328	1400
bin	0.0002887872	1498
bin	0.0002896416	1644
bin	0.000290496	1698
bin	0.0002913504	1737
bin	0.0002922048	1897
bin	0.0002930592	1961
bin	0.0002939136	1768
bin	0.000294768	1648
bin	0.0002956224	1633
bin	0.0002964768	1375
bin	0.0002973312	1215
bin	0.0002981856	1098
bin	0.00029904	1016
bin	0.0002998944	952
bin	0.0003007488	847
bin	0.0003016032	825
bin	0.0003024576	764
bin	0.000303312	720
bin	0.0003041664	691
bin	0.0003050208	595
bin	0.0003058752	621
bin	0.0003067296	607
bin	0.000307584	576
bin	0.0003084384	556
bin	0.0003092928	572
bin	0.0003101472	586
bin	0.0003110016	571
bin	0.000311856	564
bin	0.0003127104	599
bin	0.0003135648	573
bin	0.0003144192	550
bin	0.0003152736	594
bin	0.000316128	609
bin	0.0003169824	617
bin	0.0003178368	587
bin	0.0003186912	610
bin	0.0003195456	594
bin	0.0003204	596
bin	0.0003212544	594
bin	0.0003221088	581
bin	0.0003229632	569
bin	0.0003238176	590
bin	0.000324672	682
bin	0.0003255264	716
bin	0.0003263808	810
bin	0.0003272352	921
bin	0.0003280896	914
bin	0.000328944	952
bin	0.0003297984	1016
bin	0.0003306528	1152
bin	0.0003315072	1146
bin	0.0003323616	1272
bin	0.000333216	1389
bin	0.0003340704	1386
bin	0.0003349248	1235
bin	0.0003357792	1133
bin	0.0003366336	1113
bin	0.000337488	1004
bin	0.0003383424	904
bin	0.0003391968	852
bin	0.0003400512	844
bin	0.0003409056	803
bin	0.00034176	780
bin	0.0003426144	709
bin	0.0003434688	701
bin	0.0003443232	678
bin	0.0003451776	666
bin	0.000346032	658
bin	0.0003468864	646
bin	0.0003477408	594
bin	0.0003485952	562
bin	0.0003494496	583
bin	0.000350304	544
bin	0.0003511584	536
bin	0.0003520128	525
bin	0.0003528672	506
bin	0.0003537216	498
bin	0.000354576	480
bin	0.0003554304	433
bin	0.0003562848	409
bin	0.0003571392	426
bin	0.0003579936	357
bin	0.000358848	348
bin	0.0003597024	392
bin	0.0003605568	403
bin	0.0003614112	355
bin	0.0003622656	369
bin	0.00036312	411
bin	0.0003639744	388
bin	0.0003648288	434
bin	0.0003656832	500
bin	0.0003665376	571
bin	0.000367392	585
bin	0.0003682464	717
bin	0.0003691008	739
bin	0.0003699552	762
bin	0.0003708096	817
bin	0.000371664	914
bin	0.0003725184	939
bin	0.0003733728	986
bin	0.0003742272	1071
bin	0.0003750816	1089
bin	0.000375936	1006
bin	0.0003767904	970
bin	0.0003776448	1016
bin	0.0003784992	891
bin	0.0003793536	772
bin	0.000380208	740
bin	0.0003810624	766
bin	0.0003819168	719
bin	0.0003827712	665
bin	0.0003836256	606
bin	0.00038448	581
bin	0.0003853344	533
bin	0.0003861888	520
bin	0.0003870432	451
bin	0.0003878976	482
bin	0.000388752	458
bin	0.0003896064	444
bin	0.0003904608	446
bin	0.0003913152	459
bin	0.0003921696	430
bin	0.000393024	382
bin	0.0003938784	430
bin	0.0003947328	456
bin	0.0003955872	438
bin	0.0003964416	461
bin	0.000397296	474
bin	0.0003981504	435
bin	0.0003990048	421
bin	0.0003998592	449
bin	0.0004007136	465
bin	0.000401568	457
bin	0.0004024224	461
bin	0.0004032768	497
bin	0.0004041312	491
bin	0.0004049856	468
bin	0.00040584	520
bin	0.0004066944	528
bin	0.0004075488	502
bin	0.0004084032	543
bin	0.0004092576	588
bin	0.000410112	610
bin	0.0004109664	621
bin	0.0004118208	677
bin	0.0004126752	687
bin	0.0004135296	685
bin	0.000414384	724
bin	0.0004152384	745
bin	0.0004160928	753
bin	0.0004169472	748
bin	0.0004178016	765
bin	0.000418656	799
bin	0.0004195104	695
bin	0.0004203648	654
bin	0.0004212192	657
bin	0.0004220736	629
bin	0.000422928	580
bin	0.0004237824	572
bin	0.0004246368	569
bin	0.0004254912	534
bin	0.0004263456	500
bin	0.0004272	3691347
