version 2
run Bitcomplement-21-20120709-19:59:11-24892
attr alg 1
attr buf 8
attr configname Bitcomplement
attr datetime 20120709-19:59:11
attr delta 0.6
attr experiment Bitcomplement
attr ext true
attr inifile altro.ini
attr iterationvars "$buf=8, $ext=true, $ofedge=2, $delta=0.6, $alg=1"
attr iterationvars2 "$buf=8, $ext=true, $ofedge=2, $delta=0.6, $alg=1, $repetition=0"
attr measurement "$buf=8, $ext=true, $ofedge=2, $delta=0.6, $alg=1"
attr network Torus3d_bub
attr ofedge 2
attr processid 24892
attr repetition 0
attr replication #0
attr resultdir altro-results
attr runnumber 21
attr seedset 21

scalar . 	alg 	1
scalar . 	buf 	8
scalar . 	delta 	0.6
scalar . 	ofedge 	2
scalar Torus3d_bub.timer 	#endTime 	0.01636935897493
scalar Torus3d_bub.timer 	#totalHops 	111365408
scalar Torus3d_bub.timer 	#totalPacks 	6291456
scalar Torus3d_bub.timer 	#totalDerouted 	3655116
scalar Torus3d_bub.timer 	#totalOutFlanked 	3655116
scalar Torus3d_bub.timer 	#totalCQRed 	0
scalar Torus3d_bub.timer 	#LB 	0.000786432
scalar Torus3d_bub.timer 	#ratio 	0.048042931992904
statistic Torus3d_bub.timer 	"Hop Times"
field count 6291456
field mean 0.00049350973525619
field stddev 0.00037945740017378
field sum 3104.894784936
field sqrsum 2.4381893133919
field min 4.63393933e-07
field max 0.004450017333333
bin	-INF	0
bin	0	0
bin	7.12e-08	0
bin	1.424e-07	0
bin	2.136e-07	0
bin	2.848e-07	0
bin	3.56e-07	0
bin	4.272e-07	120
bin	4.984e-07	1554
bin	5.696e-07	2463
bin	6.408e-07	2581
bin	7.12e-07	2987
bin	7.832e-07	3244
bin	8.544e-07	3436
bin	9.256e-07	3860
bin	9.968e-07	4180
bin	1.068e-06	4374
bin	1.1392e-06	4748
bin	1.2104e-06	4864
bin	1.2816e-06	5037
bin	1.3528e-06	5071
bin	1.424e-06	5255
bin	1.4952e-06	5047
bin	1.5664e-06	4966
bin	1.6376e-06	4535
bin	1.7088e-06	4378
bin	1.78e-06	4261
bin	1.8512e-06	4233
bin	1.9224e-06	4095
bin	1.9936e-06	4129
bin	2.0648e-06	4014
bin	2.136e-06	3971
bin	2.2072e-06	3790
bin	2.2784e-06	3731
bin	2.3496e-06	3614
bin	2.4208e-06	3569
bin	2.492e-06	3502
bin	2.5632e-06	3366
bin	2.6344e-06	3343
bin	2.7056e-06	3208
bin	2.7768e-06	3144
bin	2.848e-06	3073
bin	2.9192e-06	2965
bin	2.9904e-06	2802
bin	3.0616e-06	2656
bin	3.1328e-06	2573
bin	3.204e-06	2322
bin	3.2752e-06	2166
bin	3.3464e-06	1965
bin	3.4176e-06	1954
bin	3.4888e-06	1810
bin	3.56e-06	1753
bin	3.6312e-06	1654
bin	3.7024e-06	1685
bin	3.7736e-06	1651
bin	3.8448e-06	1569
bin	3.916e-06	1551
bin	3.9872e-06	1527
bin	4.0584e-06	1426
bin	4.1296e-06	1389
bin	4.2008e-06	1343
bin	4.272e-06	1344
bin	4.3432e-06	1249
bin	4.4144e-06	1250
bin	4.4856e-06	1213
bin	4.5568e-06	1163
bin	4.628e-06	1075
bin	4.6992e-06	1059
bin	4.7704e-06	1078
bin	4.8416e-06	1003
bin	4.9128e-06	996
bin	4.984e-06	907
bin	5.0552e-06	925
bin	5.1264e-06	934
bin	5.1976e-06	895
bin	5.2688e-06	824
bin	5.34e-06	790
bin	5.4112e-06	753
bin	5.4824e-06	743
bin	5.5536e-06	732
bin	5.6248e-06	792
bin	5.696e-06	707
bin	5.7672e-06	716
bin	5.8384e-06	698
bin	5.9096e-06	652
bin	5.9808e-06	677
bin	6.052e-06	711
bin	6.1232e-06	724
bin	6.1944e-06	711
bin	6.2656e-06	713
bin	6.3368e-06	642
bin	6.408e-06	679
bin	6.4792e-06	642
bin	6.5504e-06	670
bin	6.6216e-06	654
bin	6.6928e-06	645
bin	6.764e-06	650
bin	6.8352e-06	668
bin	6.9064e-06	658
bin	6.9776e-06	622
bin	7.0488e-06	634
bin	7.12e-06	557
bin	7.1912e-06	564
bin	7.2624e-06	540
bin	7.3336e-06	575
bin	7.4048e-06	576
bin	7.476e-06	583
bin	7.5472e-06	541
bin	7.6184e-06	559
bin	7.6896e-06	522
bin	7.7608e-06	565
bin	7.832e-06	572
bin	7.9032e-06	598
bin	7.9744e-06	587
bin	8.0456e-06	600
bin	8.1168e-06	579
bin	8.188e-06	571
bin	8.2592e-06	608
bin	8.3304e-06	627
bin	8.4016e-06	569
bin	8.4728e-06	570
bin	8.544e-06	555
bin	8.6152e-06	535
bin	8.6864e-06	541
bin	8.7576e-06	515
bin	8.8288e-06	497
bin	8.9e-06	550
bin	8.9712e-06	543
bin	9.0424e-06	521
bin	9.1136e-06	544
bin	9.1848e-06	556
bin	9.256e-06	567
bin	9.3272e-06	571
bin	9.3984e-06	572
bin	9.4696e-06	586
bin	9.5408e-06	538
bin	9.612e-06	518
bin	9.6832e-06	509
bin	9.7544e-06	492
bin	9.8256e-06	494
bin	9.8968e-06	491
bin	9.968e-06	547
bin	1.00392e-05	493
bin	1.01104e-05	539
bin	1.01816e-05	520
bin	1.02528e-05	498
bin	1.0324e-05	525
bin	1.03952e-05	536
bin	1.04664e-05	549
bin	1.05376e-05	556
bin	1.06088e-05	525
bin	1.068e-05	521
bin	1.07512e-05	522
bin	1.08224e-05	482
bin	1.08936e-05	513
bin	1.09648e-05	497
bin	1.1036e-05	488
bin	1.11072e-05	520
bin	1.11784e-05	496
bin	1.12496e-05	506
bin	1.13208e-05	488
bin	1.1392e-05	475
bin	1.14632e-05	469
bin	1.15344e-05	462
bin	1.16056e-05	481
bin	1.16768e-05	526
bin	1.1748e-05	488
bin	1.18192e-05	480
bin	1.18904e-05	485
bin	1.19616e-05	465
bin	1.20328e-05	466
bin	1.2104e-05	480
bin	1.21752e-05	464
bin	1.22464e-05	465
bin	1.23176e-05	441
bin	1.23888e-05	416
bin	1.246e-05	438
bin	1.25312e-05	419
bin	1.26024e-05	434
bin	1.26736e-05	418
bin	1.27448e-05	482
bin	1.2816e-05	469
bin	1.28872e-05	417
bin	1.29584e-05	477
bin	1.30296e-05	452
bin	1.31008e-05	457
bin	1.3172e-05	423
bin	1.32432e-05	431
bin	1.33144e-05	427
bin	1.33856e-05	433
bin	1.34568e-05	440
bin	1.3528e-05	463
bin	1.35992e-05	458
bin	1.36704e-05	470
bin	1.37416e-05	432
bin	1.38128e-05	469
bin	1.3884e-05	442
bin	1.39552e-05	457
bin	1.40264e-05	444
bin	1.40976e-05	435
bin	1.41688e-05	466
bin	1.424e-05	435
bin	1.43112e-05	400
bin	1.43824e-05	366
bin	1.44536e-05	373
bin	1.45248e-05	401
bin	1.4596e-05	418
bin	1.46672e-05	426
bin	1.47384e-05	405
bin	1.48096e-05	397
bin	1.48808e-05	410
bin	1.4952e-05	396
bin	1.50232e-05	449
bin	1.50944e-05	427
bin	1.51656e-05	379
bin	1.52368e-05	381
bin	1.5308e-05	414
bin	1.53792e-05	431
bin	1.54504e-05	386
bin	1.55216e-05	421
bin	1.55928e-05	394
bin	1.5664e-05	432
bin	1.57352e-05	400
bin	1.58064e-05	412
bin	1.58776e-05	382
bin	1.59488e-05	371
bin	1.602e-05	391
bin	1.60912e-05	406
bin	1.61624e-05	438
bin	1.62336e-05	404
bin	1.63048e-05	456
bin	1.6376e-05	427
bin	1.64472e-05	408
bin	1.65184e-05	410
bin	1.65896e-05	413
bin	1.66608e-05	399
bin	1.6732e-05	406
bin	1.68032e-05	422
bin	1.68744e-05	392
bin	1.69456e-05	391
bin	1.70168e-05	412
bin	1.7088e-05	402
bin	1.71592e-05	400
bin	1.72304e-05	366
bin	1.73016e-05	383
bin	1.73728e-05	350
bin	1.7444e-05	346
bin	1.75152e-05	361
bin	1.75864e-05	359
bin	1.76576e-05	349
bin	1.77288e-05	334
bin	1.78e-05	372
bin	1.78712e-05	382
bin	1.79424e-05	357
bin	1.80136e-05	351
bin	1.80848e-05	339
bin	1.8156e-05	372
bin	1.82272e-05	346
bin	1.82984e-05	342
bin	1.83696e-05	342
bin	1.84408e-05	347
bin	1.8512e-05	366
bin	1.85832e-05	342
bin	1.86544e-05	347
bin	1.87256e-05	346
bin	1.87968e-05	329
bin	1.8868e-05	334
bin	1.89392e-05	334
bin	1.90104e-05	351
bin	1.90816e-05	363
bin	1.91528e-05	377
bin	1.9224e-05	327
bin	1.92952e-05	325
bin	1.93664e-05	365
bin	1.94376e-05	329
bin	1.95088e-05	337
bin	1.958e-05	326
bin	1.96512e-05	304
bin	1.97224e-05	293
bin	1.97936e-05	291
bin	1.98648e-05	268
bin	1.9936e-05	287
bin	2.00072e-05	266
bin	2.00784e-05	270
bin	2.01496e-05	262
bin	2.02208e-05	271
bin	2.0292e-05	310
bin	2.03632e-05	292
bin	2.04344e-05	327
bin	2.05056e-05	330
bin	2.05768e-05	348
bin	2.0648e-05	332
bin	2.07192e-05	287
bin	2.07904e-05	329
bin	2.08616e-05	300
bin	2.09328e-05	292
bin	2.1004e-05	300
bin	2.10752e-05	316
bin	2.11464e-05	312
bin	2.12176e-05	297
bin	2.12888e-05	274
bin	2.136e-05	299
bin	2.14312e-05	287
bin	2.15024e-05	295
bin	2.15736e-05	283
bin	2.16448e-05	336
bin	2.1716e-05	299
bin	2.17872e-05	303
bin	2.18584e-05	327
bin	2.19296e-05	319
bin	2.20008e-05	287
bin	2.2072e-05	320
bin	2.21432e-05	306
bin	2.22144e-05	319
bin	2.22856e-05	318
bin	2.23568e-05	279
bin	2.2428e-05	293
bin	2.24992e-05	294
bin	2.25704e-05	283
bin	2.26416e-05	258
bin	2.27128e-05	294
bin	2.2784e-05	271
bin	2.28552e-05	277
bin	2.29264e-05	304
bin	2.29976e-05	287
bin	2.30688e-05	316
bin	2.314e-05	307
bin	2.32112e-05	311
bin	2.32824e-05	304
bin	2.33536e-05	312
bin	2.34248e-05	340
bin	2.3496e-05	316
bin	2.35672e-05	325
bin	2.36384e-05	317
bin	2.37096e-05	289
bin	2.37808e-05	313
bin	2.3852e-05	317
bin	2.39232e-05	309
bin	2.39944e-05	319
bin	2.40656e-05	317
bin	2.41368e-05	317
bin	2.4208e-05	308
bin	2.42792e-05	309
bin	2.43504e-05	282
bin	2.44216e-05	292
bin	2.44928e-05	306
bin	2.4564e-05	315
bin	2.46352e-05	315
bin	2.47064e-05	300
bin	2.47776e-05	298
bin	2.48488e-05	289
bin	2.492e-05	299
bin	2.49912e-05	276
bin	2.50624e-05	295
bin	2.51336e-05	264
bin	2.52048e-05	282
bin	2.5276e-05	293
bin	2.53472e-05	287
bin	2.54184e-05	284
bin	2.54896e-05	319
bin	2.55608e-05	307
bin	2.5632e-05	305
bin	2.57032e-05	337
bin	2.57744e-05	316
bin	2.58456e-05	311
bin	2.59168e-05	278
bin	2.5988e-05	291
bin	2.60592e-05	274
bin	2.61304e-05	302
bin	2.62016e-05	322
bin	2.62728e-05	300
bin	2.6344e-05	291
bin	2.64152e-05	275
bin	2.64864e-05	301
bin	2.65576e-05	270
bin	2.66288e-05	285
bin	2.67e-05	275
bin	2.67712e-05	271
bin	2.68424e-05	278
bin	2.69136e-05	283
bin	2.69848e-05	293
bin	2.7056e-05	278
bin	2.71272e-05	248
bin	2.71984e-05	273
bin	2.72696e-05	270
bin	2.73408e-05	300
bin	2.7412e-05	325
bin	2.74832e-05	330
bin	2.75544e-05	298
bin	2.76256e-05	317
bin	2.76968e-05	310
bin	2.7768e-05	324
bin	2.78392e-05	280
bin	2.79104e-05	320
bin	2.79816e-05	310
bin	2.80528e-05	294
bin	2.8124e-05	261
bin	2.81952e-05	298
bin	2.82664e-05	302
bin	2.83376e-05	310
bin	2.84088e-05	294
bin	2.848e-05	299
bin	2.85512e-05	318
bin	2.86224e-05	321
bin	2.86936e-05	308
bin	2.87648e-05	299
bin	2.8836e-05	300
bin	2.89072e-05	291
bin	2.89784e-05	281
bin	2.90496e-05	289
bin	2.91208e-05	293
bin	2.9192e-05	277
bin	2.92632e-05	260
bin	2.93344e-05	276
bin	2.94056e-05	290
bin	2.94768e-05	282
bin	2.9548e-05	306
bin	2.96192e-05	318
bin	2.96904e-05	282
bin	2.97616e-05	304
bin	2.98328e-05	280
bin	2.9904e-05	312
bin	2.99752e-05	287
bin	3.00464e-05	321
bin	3.01176e-05	303
bin	3.01888e-05	296
bin	3.026e-05	283
bin	3.03312e-05	273
bin	3.04024e-05	275
bin	3.04736e-05	261
bin	3.05448e-05	258
bin	3.0616e-05	280
bin	3.06872e-05	285
bin	3.07584e-05	306
bin	3.08296e-05	302
bin	3.09008e-05	276
bin	3.0972e-05	305
bin	3.10432e-05	295
bin	3.11144e-05	308
bin	3.11856e-05	313
bin	3.12568e-05	309
bin	3.1328e-05	310
bin	3.13992e-05	301
bin	3.14704e-05	311
bin	3.15416e-05	334
bin	3.16128e-05	316
bin	3.1684e-05	282
bin	3.17552e-05	308
bin	3.18264e-05	301
bin	3.18976e-05	324
bin	3.19688e-05	322
bin	3.204e-05	321
bin	3.21112e-05	330
bin	3.21824e-05	306
bin	3.22536e-05	295
bin	3.23248e-05	305
bin	3.2396e-05	318
bin	3.24672e-05	361
bin	3.25384e-05	354
bin	3.26096e-05	381
bin	3.26808e-05	358
bin	3.2752e-05	389
bin	3.28232e-05	357
bin	3.28944e-05	376
bin	3.29656e-05	341
bin	3.30368e-05	358
bin	3.3108e-05	348
bin	3.31792e-05	291
bin	3.32504e-05	309
bin	3.33216e-05	310
bin	3.33928e-05	303
bin	3.3464e-05	342
bin	3.35352e-05	295
bin	3.36064e-05	310
bin	3.36776e-05	308
bin	3.37488e-05	285
bin	3.382e-05	267
bin	3.38912e-05	318
bin	3.39624e-05	304
bin	3.40336e-05	305
bin	3.41048e-05	324
bin	3.4176e-05	328
bin	3.42472e-05	322
bin	3.43184e-05	326
bin	3.43896e-05	327
bin	3.44608e-05	330
bin	3.4532e-05	333
bin	3.46032e-05	322
bin	3.46744e-05	337
bin	3.47456e-05	306
bin	3.48168e-05	324
bin	3.4888e-05	294
bin	3.49592e-05	286
bin	3.50304e-05	266
bin	3.51016e-05	292
bin	3.51728e-05	279
bin	3.5244e-05	300
bin	3.53152e-05	303
bin	3.53864e-05	317
bin	3.54576e-05	333
bin	3.55288e-05	308
bin	3.56e-05	5942202
statistic Torus3d_bub.timer 	"Life Times"
field count 6291456
field mean 0.0075857114086856
field stddev 0.0037264155223025
field sum 47725.169556443
field sqrsum 449.39359350311
field min 1.463666666e-06
field max 0.01623979997493
bin	-INF	0
bin	0	0
bin	8.544e-07	18
bin	1.7088e-06	106
bin	2.5632e-06	216
bin	3.4176e-06	751
bin	4.272e-06	1414
bin	5.1264e-06	1962
bin	5.9808e-06	2097
bin	6.8352e-06	2214
bin	7.6896e-06	2294
bin	8.544e-06	2491
bin	9.3984e-06	2615
bin	1.02528e-05	2884
bin	1.11072e-05	3002
bin	1.19616e-05	3254
bin	1.2816e-05	3279
bin	1.36704e-05	3197
bin	1.45248e-05	3326
bin	1.53792e-05	3215
bin	1.62336e-05	3262
bin	1.7088e-05	3297
bin	1.79424e-05	3181
bin	1.87968e-05	3020
bin	1.96512e-05	2905
bin	2.05056e-05	2899
bin	2.136e-05	2916
bin	2.22144e-05	2957
bin	2.30688e-05	2948
bin	2.39232e-05	3014
bin	2.47776e-05	3056
bin	2.5632e-05	3056
bin	2.64864e-05	3130
bin	2.73408e-05	3157
bin	2.81952e-05	3069
bin	2.90496e-05	2830
bin	2.9904e-05	2899
bin	3.07584e-05	2834
bin	3.16128e-05	2797
bin	3.24672e-05	2882
bin	3.33216e-05	2834
bin	3.4176e-05	2867
bin	3.50304e-05	2859
bin	3.58848e-05	2827
bin	3.67392e-05	2738
bin	3.75936e-05	2801
bin	3.8448e-05	2657
bin	3.93024e-05	2775
bin	4.01568e-05	2764
bin	4.10112e-05	2865
bin	4.18656e-05	2640
bin	4.272e-05	2507
bin	4.35744e-05	2480
bin	4.44288e-05	2314
bin	4.52832e-05	2151
bin	4.61376e-05	2078
bin	4.6992e-05	1944
bin	4.78464e-05	1852
bin	4.87008e-05	1719
bin	4.95552e-05	1640
bin	5.04096e-05	1499
bin	5.1264e-05	1324
bin	5.21184e-05	1272
bin	5.29728e-05	1275
bin	5.38272e-05	1184
bin	5.46816e-05	1153
bin	5.5536e-05	1131
bin	5.63904e-05	1056
bin	5.72448e-05	1011
bin	5.80992e-05	938
bin	5.89536e-05	934
bin	5.9808e-05	940
bin	6.06624e-05	880
bin	6.15168e-05	879
bin	6.23712e-05	823
bin	6.32256e-05	775
bin	6.408e-05	812
bin	6.49344e-05	762
bin	6.57888e-05	796
bin	6.66432e-05	771
bin	6.74976e-05	777
bin	6.8352e-05	746
bin	6.92064e-05	763
bin	7.00608e-05	723
bin	7.09152e-05	724
bin	7.17696e-05	756
bin	7.2624e-05	738
bin	7.34784e-05	669
bin	7.43328e-05	698
bin	7.51872e-05	649
bin	7.60416e-05	679
bin	7.6896e-05	686
bin	7.77504e-05	673
bin	7.86048e-05	662
bin	7.94592e-05	679
bin	8.03136e-05	701
bin	8.1168e-05	675
bin	8.20224e-05	729
bin	8.28768e-05	686
bin	8.37312e-05	693
bin	8.45856e-05	651
bin	8.544e-05	648
bin	8.62944e-05	670
bin	8.71488e-05	606
bin	8.80032e-05	599
bin	8.88576e-05	579
bin	8.9712e-05	628
bin	9.05664e-05	549
bin	9.14208e-05	551
bin	9.22752e-05	545
bin	9.31296e-05	524
bin	9.3984e-05	519
bin	9.48384e-05	478
bin	9.56928e-05	520
bin	9.65472e-05	507
bin	9.74016e-05	475
bin	9.8256e-05	476
bin	9.91104e-05	488
bin	9.99648e-05	454
bin	0.0001008192	459
bin	0.0001016736	463
bin	0.000102528	472
bin	0.0001033824	488
bin	0.0001042368	452
bin	0.0001050912	471
bin	0.0001059456	444
bin	0.0001068	433
bin	0.0001076544	432
bin	0.0001085088	469
bin	0.0001093632	447
bin	0.0001102176	444
bin	0.000111072	459
bin	0.0001119264	459
bin	0.0001127808	444
bin	0.0001136352	456
bin	0.0001144896	448
bin	0.000115344	448
bin	0.0001161984	468
bin	0.0001170528	484
bin	0.0001179072	454
bin	0.0001187616	486
bin	0.000119616	503
bin	0.0001204704	457
bin	0.0001213248	486
bin	0.0001221792	435
bin	0.0001230336	450
bin	0.000123888	465
bin	0.0001247424	441
bin	0.0001255968	473
bin	0.0001264512	471
bin	0.0001273056	486
bin	0.00012816	452
bin	0.0001290144	425
bin	0.0001298688	470
bin	0.0001307232	385
bin	0.0001315776	394
bin	0.000132432	401
bin	0.0001332864	385
bin	0.0001341408	393
bin	0.0001349952	384
bin	0.0001358496	390
bin	0.000136704	379
bin	0.0001375584	378
bin	0.0001384128	374
bin	0.0001392672	408
bin	0.0001401216	397
bin	0.000140976	395
bin	0.0001418304	413
bin	0.0001426848	404
bin	0.0001435392	430
bin	0.0001443936	362
bin	0.000145248	381
bin	0.0001461024	418
bin	0.0001469568	397
bin	0.0001478112	427
bin	0.0001486656	425
bin	0.00014952	456
bin	0.0001503744	425
bin	0.0001512288	409
bin	0.0001520832	450
bin	0.0001529376	423
bin	0.000153792	408
bin	0.0001546464	422
bin	0.0001555008	397
bin	0.0001563552	410
bin	0.0001572096	404
bin	0.000158064	409
bin	0.0001589184	417
bin	0.0001597728	392
bin	0.0001606272	401
bin	0.0001614816	402
bin	0.000162336	400
bin	0.0001631904	405
bin	0.0001640448	378
bin	0.0001648992	357
bin	0.0001657536	369
bin	0.000166608	392
bin	0.0001674624	399
bin	0.0001683168	385
bin	0.0001691712	380
bin	0.0001700256	384
bin	0.00017088	407
bin	0.0001717344	391
bin	0.0001725888	408
bin	0.0001734432	417
bin	0.0001742976	420
bin	0.000175152	414
bin	0.0001760064	409
bin	0.0001768608	403
bin	0.0001777152	414
bin	0.0001785696	445
bin	0.000179424	449
bin	0.0001802784	430
bin	0.0001811328	412
bin	0.0001819872	404
bin	0.0001828416	419
bin	0.000183696	445
bin	0.0001845504	401
bin	0.0001854048	413
bin	0.0001862592	440
bin	0.0001871136	407
bin	0.000187968	385
bin	0.0001888224	432
bin	0.0001896768	394
bin	0.0001905312	401
bin	0.0001913856	406
bin	0.00019224	382
bin	0.0001930944	379
bin	0.0001939488	372
bin	0.0001948032	361
bin	0.0001956576	373
bin	0.000196512	400
bin	0.0001973664	385
bin	0.0001982208	424
bin	0.0001990752	412
bin	0.0001999296	411
bin	0.000200784	431
bin	0.0002016384	430
bin	0.0002024928	390
bin	0.0002033472	401
bin	0.0002042016	400
bin	0.000205056	425
bin	0.0002059104	415
bin	0.0002067648	370
bin	0.0002076192	381
bin	0.0002084736	358
bin	0.000209328	385
bin	0.0002101824	335
bin	0.0002110368	388
bin	0.0002118912	359
bin	0.0002127456	388
bin	0.0002136	346
bin	0.0002144544	375
bin	0.0002153088	370
bin	0.0002161632	393
bin	0.0002170176	392
bin	0.000217872	360
bin	0.0002187264	358
bin	0.0002195808	338
bin	0.0002204352	354
bin	0.0002212896	347
bin	0.000222144	316
bin	0.0002229984	330
bin	0.0002238528	339
bin	0.0002247072	331
bin	0.0002255616	343
bin	0.000226416	326
bin	0.0002272704	310
bin	0.0002281248	331
bin	0.0002289792	329
bin	0.0002298336	348
bin	0.000230688	346
bin	0.0002315424	384
bin	0.0002323968	395
bin	0.0002332512	345
bin	0.0002341056	355
bin	0.00023496	363
bin	0.0002358144	347
bin	0.0002366688	334
bin	0.0002375232	344
bin	0.0002383776	363
bin	0.000239232	358
bin	0.0002400864	362
bin	0.0002409408	371
bin	0.0002417952	352
bin	0.0002426496	333
bin	0.000243504	342
bin	0.0002443584	315
bin	0.0002452128	300
bin	0.0002460672	291
bin	0.0002469216	296
bin	0.000247776	293
bin	0.0002486304	280
bin	0.0002494848	280
bin	0.0002503392	269
bin	0.0002511936	261
bin	0.000252048	266
bin	0.0002529024	291
bin	0.0002537568	295
bin	0.0002546112	297
bin	0.0002554656	308
bin	0.00025632	301
bin	0.0002571744	306
bin	0.0002580288	307
bin	0.0002588832	287
bin	0.0002597376	312
bin	0.000260592	301
bin	0.0002614464	314
bin	0.0002623008	311
bin	0.0002631552	268
bin	0.0002640096	266
bin	0.000264864	281
bin	0.0002657184	317
bin	0.0002665728	317
bin	0.0002674272	337
bin	0.0002682816	313
bin	0.000269136	307
bin	0.0002699904	298
bin	0.0002708448	286
bin	0.0002716992	278
bin	0.0002725536	266
bin	0.000273408	276
bin	0.0002742624	278
bin	0.0002751168	283
bin	0.0002759712	274
bin	0.0002768256	282
bin	0.00027768	278
bin	0.0002785344	251
bin	0.0002793888	271
bin	0.0002802432	277
bin	0.0002810976	280
bin	0.000281952	275
bin	0.0002828064	296
bin	0.0002836608	279
bin	0.0002845152	294
bin	0.0002853696	303
bin	0.000286224	308
bin	0.0002870784	304
bin	0.0002879328	287
bin	0.0002887872	297
bin	0.0002896416	304
bin	0.000290496	291
bin	0.0002913504	294
bin	0.0002922048	300
bin	0.0002930592	310
bin	0.0002939136	283
bin	0.000294768	283
bin	0.0002956224	275
bin	0.0002964768	291
bin	0.0002973312	262
bin	0.0002981856	296
bin	0.00029904	272
bin	0.0002998944	296
bin	0.0003007488	273
bin	0.0003016032	290
bin	0.0003024576	271
bin	0.000303312	283
bin	0.0003041664	287
bin	0.0003050208	289
bin	0.0003058752	275
bin	0.0003067296	269
bin	0.000307584	267
bin	0.0003084384	276
bin	0.0003092928	257
bin	0.0003101472	287
bin	0.0003110016	279
bin	0.000311856	316
bin	0.0003127104	297
bin	0.0003135648	284
bin	0.0003144192	309
bin	0.0003152736	298
bin	0.000316128	285
bin	0.0003169824	283
bin	0.0003178368	286
bin	0.0003186912	285
bin	0.0003195456	300
bin	0.0003204	293
bin	0.0003212544	288
bin	0.0003221088	280
bin	0.0003229632	289
bin	0.0003238176	279
bin	0.000324672	321
bin	0.0003255264	274
bin	0.0003263808	297
bin	0.0003272352	264
bin	0.0003280896	247
bin	0.000328944	258
bin	0.0003297984	255
bin	0.0003306528	245
bin	0.0003315072	242
bin	0.0003323616	235
bin	0.000333216	238
bin	0.0003340704	236
bin	0.0003349248	241
bin	0.0003357792	226
bin	0.0003366336	227
bin	0.000337488	215
bin	0.0003383424	252
bin	0.0003391968	223
bin	0.0003400512	241
bin	0.0003409056	218
bin	0.00034176	238
bin	0.0003426144	250
bin	0.0003434688	245
bin	0.0003443232	251
bin	0.0003451776	252
bin	0.000346032	248
bin	0.0003468864	259
bin	0.0003477408	249
bin	0.0003485952	270
bin	0.0003494496	256
bin	0.000350304	277
bin	0.0003511584	264
bin	0.0003520128	272
bin	0.0003528672	277
bin	0.0003537216	264
bin	0.000354576	270
bin	0.0003554304	262
bin	0.0003562848	269
bin	0.0003571392	259
bin	0.0003579936	263
bin	0.000358848	265
bin	0.0003597024	240
bin	0.0003605568	236
bin	0.0003614112	236
bin	0.0003622656	242
bin	0.00036312	240
bin	0.0003639744	215
bin	0.0003648288	229
bin	0.0003656832	219
bin	0.0003665376	216
bin	0.000367392	223
bin	0.0003682464	232
bin	0.0003691008	246
bin	0.0003699552	247
bin	0.0003708096	255
bin	0.000371664	234
bin	0.0003725184	256
bin	0.0003733728	258
bin	0.0003742272	260
bin	0.0003750816	257
bin	0.000375936	253
bin	0.0003767904	262
bin	0.0003776448	263
bin	0.0003784992	228
bin	0.0003793536	215
bin	0.000380208	236
bin	0.0003810624	228
bin	0.0003819168	222
bin	0.0003827712	209
bin	0.0003836256	203
bin	0.00038448	220
bin	0.0003853344	214
bin	0.0003861888	229
bin	0.0003870432	232
bin	0.0003878976	205
bin	0.000388752	229
bin	0.0003896064	215
bin	0.0003904608	224
bin	0.0003913152	220
bin	0.0003921696	227
bin	0.000393024	222
bin	0.0003938784	201
bin	0.0003947328	217
bin	0.0003955872	219
bin	0.0003964416	199
bin	0.000397296	220
bin	0.0003981504	237
bin	0.0003990048	221
bin	0.0003998592	238
bin	0.0004007136	243
bin	0.000401568	258
bin	0.0004024224	250
bin	0.0004032768	252
bin	0.0004041312	235
bin	0.0004049856	258
bin	0.00040584	252
bin	0.0004066944	251
bin	0.0004075488	249
bin	0.0004084032	250
bin	0.0004092576	240
bin	0.000410112	240
bin	0.0004109664	232
bin	0.0004118208	241
bin	0.0004126752	214
bin	0.0004135296	203
bin	0.000414384	185
bin	0.0004152384	182
bin	0.0004160928	196
bin	0.0004169472	175
bin	0.0004178016	176
bin	0.000418656	175
bin	0.0004195104	192
bin	0.0004203648	185
bin	0.0004212192	181
bin	0.0004220736	192
bin	0.000422928	197
bin	0.0004237824	188
bin	0.0004246368	167
bin	0.0004254912	190
bin	0.0004263456	170
bin	0.0004272	5976050
