version 2
run Bitcomplement-47-20120709-22:01:38-24939
attr alg 3
attr buf 8
attr configname Bitcomplement
attr datetime 20120709-22:01:38
attr delta 0.6
attr experiment Bitcomplement
attr ext false
attr inifile altro.ini
attr iterationvars "$buf=8, $ext=false, $ofedge=2, $delta=0.6, $alg=3"
attr iterationvars2 "$buf=8, $ext=false, $ofedge=2, $delta=0.6, $alg=3, $repetition=0"
attr measurement "$buf=8, $ext=false, $ofedge=2, $delta=0.6, $alg=3"
attr network Torus3d_bub
attr ofedge 2
attr processid 24939
attr repetition 0
attr replication #0
attr resultdir altro-results
attr runnumber 47
attr seedset 47

scalar . 	alg 	3
scalar . 	buf 	8
scalar . 	delta 	0.6
scalar . 	ofedge 	2
scalar Torus3d_bub.timer 	#endTime 	0.013851897645031
scalar Torus3d_bub.timer 	#totalHops 	110763303
scalar Torus3d_bub.timer 	#totalPacks 	6291456
scalar Torus3d_bub.timer 	#totalDerouted 	4762709
scalar Torus3d_bub.timer 	#totalOutFlanked 	2848284
scalar Torus3d_bub.timer 	#totalCQRed 	1914425
scalar Torus3d_bub.timer 	#LB 	0.000786432
scalar Torus3d_bub.timer 	#ratio 	0.056774314982187
statistic Torus3d_bub.timer 	"Hop Times"
field count 6291456
field mean 0.00038159822840777
field stddev 0.00029906729544516
field sum 2400.8084637055
field sqrsum 1.4788598384298
field min 4.16777777e-07
field max 0.003600324555555
bin	-INF	0
bin	0	0
bin	7.12e-08	0
bin	1.424e-07	0
bin	2.136e-07	0
bin	2.848e-07	0
bin	3.56e-07	16
bin	4.272e-07	119
bin	4.984e-07	1351
bin	5.696e-07	2031
bin	6.408e-07	2490
bin	7.12e-07	2959
bin	7.832e-07	3529
bin	8.544e-07	4115
bin	9.256e-07	4641
bin	9.968e-07	5103
bin	1.068e-06	5550
bin	1.1392e-06	5607
bin	1.2104e-06	6044
bin	1.2816e-06	6080
bin	1.3528e-06	6488
bin	1.424e-06	6468
bin	1.4952e-06	6420
bin	1.5664e-06	6347
bin	1.6376e-06	6463
bin	1.7088e-06	6318
bin	1.78e-06	6315
bin	1.8512e-06	6207
bin	1.9224e-06	6324
bin	1.9936e-06	6240
bin	2.0648e-06	6069
bin	2.136e-06	5939
bin	2.2072e-06	5858
bin	2.2784e-06	5541
bin	2.3496e-06	5481
bin	2.4208e-06	5351
bin	2.492e-06	5066
bin	2.5632e-06	4834
bin	2.6344e-06	4603
bin	2.7056e-06	4499
bin	2.7768e-06	4247
bin	2.848e-06	4073
bin	2.9192e-06	3827
bin	2.9904e-06	3653
bin	3.0616e-06	3527
bin	3.1328e-06	3387
bin	3.204e-06	3268
bin	3.2752e-06	3031
bin	3.3464e-06	2840
bin	3.4176e-06	2756
bin	3.4888e-06	2552
bin	3.56e-06	2518
bin	3.6312e-06	2386
bin	3.7024e-06	2209
bin	3.7736e-06	2111
bin	3.8448e-06	2115
bin	3.916e-06	2022
bin	3.9872e-06	1978
bin	4.0584e-06	1902
bin	4.1296e-06	1832
bin	4.2008e-06	1831
bin	4.272e-06	1761
bin	4.3432e-06	1718
bin	4.4144e-06	1710
bin	4.4856e-06	1656
bin	4.5568e-06	1616
bin	4.628e-06	1623
bin	4.6992e-06	1615
bin	4.7704e-06	1607
bin	4.8416e-06	1523
bin	4.9128e-06	1513
bin	4.984e-06	1544
bin	5.0552e-06	1526
bin	5.1264e-06	1405
bin	5.1976e-06	1348
bin	5.2688e-06	1484
bin	5.34e-06	1415
bin	5.4112e-06	1396
bin	5.4824e-06	1354
bin	5.5536e-06	1332
bin	5.6248e-06	1374
bin	5.696e-06	1276
bin	5.7672e-06	1254
bin	5.8384e-06	1259
bin	5.9096e-06	1238
bin	5.9808e-06	1181
bin	6.052e-06	1251
bin	6.1232e-06	1226
bin	6.1944e-06	1243
bin	6.2656e-06	1245
bin	6.3368e-06	1244
bin	6.408e-06	1257
bin	6.4792e-06	1273
bin	6.5504e-06	1253
bin	6.6216e-06	1199
bin	6.6928e-06	1219
bin	6.764e-06	1202
bin	6.8352e-06	1159
bin	6.9064e-06	1134
bin	6.9776e-06	1071
bin	7.0488e-06	1029
bin	7.12e-06	1062
bin	7.1912e-06	1072
bin	7.2624e-06	1064
bin	7.3336e-06	1103
bin	7.4048e-06	1116
bin	7.476e-06	1119
bin	7.5472e-06	1110
bin	7.6184e-06	1073
bin	7.6896e-06	1112
bin	7.7608e-06	1122
bin	7.832e-06	1052
bin	7.9032e-06	1076
bin	7.9744e-06	989
bin	8.0456e-06	1071
bin	8.1168e-06	1038
bin	8.188e-06	1082
bin	8.2592e-06	1088
bin	8.3304e-06	1039
bin	8.4016e-06	1004
bin	8.4728e-06	1028
bin	8.544e-06	989
bin	8.6152e-06	977
bin	8.6864e-06	930
bin	8.7576e-06	939
bin	8.8288e-06	984
bin	8.9e-06	981
bin	8.9712e-06	974
bin	9.0424e-06	981
bin	9.1136e-06	1008
bin	9.1848e-06	1008
bin	9.256e-06	991
bin	9.3272e-06	1000
bin	9.3984e-06	913
bin	9.4696e-06	918
bin	9.5408e-06	948
bin	9.612e-06	967
bin	9.6832e-06	969
bin	9.7544e-06	975
bin	9.8256e-06	932
bin	9.8968e-06	915
bin	9.968e-06	867
bin	1.00392e-05	836
bin	1.01104e-05	836
bin	1.01816e-05	806
bin	1.02528e-05	800
bin	1.0324e-05	883
bin	1.03952e-05	786
bin	1.04664e-05	803
bin	1.05376e-05	846
bin	1.06088e-05	815
bin	1.068e-05	828
bin	1.07512e-05	841
bin	1.08224e-05	849
bin	1.08936e-05	768
bin	1.09648e-05	826
bin	1.1036e-05	830
bin	1.11072e-05	817
bin	1.11784e-05	725
bin	1.12496e-05	811
bin	1.13208e-05	785
bin	1.1392e-05	811
bin	1.14632e-05	730
bin	1.15344e-05	706
bin	1.16056e-05	794
bin	1.16768e-05	702
bin	1.1748e-05	721
bin	1.18192e-05	755
bin	1.18904e-05	747
bin	1.19616e-05	767
bin	1.20328e-05	719
bin	1.2104e-05	663
bin	1.21752e-05	712
bin	1.22464e-05	731
bin	1.23176e-05	722
bin	1.23888e-05	745
bin	1.246e-05	752
bin	1.25312e-05	727
bin	1.26024e-05	749
bin	1.26736e-05	722
bin	1.27448e-05	740
bin	1.2816e-05	716
bin	1.28872e-05	694
bin	1.29584e-05	683
bin	1.30296e-05	712
bin	1.31008e-05	652
bin	1.3172e-05	643
bin	1.32432e-05	656
bin	1.33144e-05	673
bin	1.33856e-05	658
bin	1.34568e-05	677
bin	1.3528e-05	625
bin	1.35992e-05	654
bin	1.36704e-05	646
bin	1.37416e-05	635
bin	1.38128e-05	665
bin	1.3884e-05	665
bin	1.39552e-05	632
bin	1.40264e-05	652
bin	1.40976e-05	676
bin	1.41688e-05	599
bin	1.424e-05	633
bin	1.43112e-05	688
bin	1.43824e-05	685
bin	1.44536e-05	687
bin	1.45248e-05	651
bin	1.4596e-05	657
bin	1.46672e-05	671
bin	1.47384e-05	695
bin	1.48096e-05	678
bin	1.48808e-05	610
bin	1.4952e-05	589
bin	1.50232e-05	624
bin	1.50944e-05	605
bin	1.51656e-05	603
bin	1.52368e-05	640
bin	1.5308e-05	613
bin	1.53792e-05	564
bin	1.54504e-05	621
bin	1.55216e-05	620
bin	1.55928e-05	614
bin	1.5664e-05	606
bin	1.57352e-05	607
bin	1.58064e-05	611
bin	1.58776e-05	609
bin	1.59488e-05	585
bin	1.602e-05	611
bin	1.60912e-05	547
bin	1.61624e-05	537
bin	1.62336e-05	571
bin	1.63048e-05	572
bin	1.6376e-05	561
bin	1.64472e-05	556
bin	1.65184e-05	553
bin	1.65896e-05	572
bin	1.66608e-05	617
bin	1.6732e-05	624
bin	1.68032e-05	646
bin	1.68744e-05	664
bin	1.69456e-05	657
bin	1.70168e-05	629
bin	1.7088e-05	589
bin	1.71592e-05	588
bin	1.72304e-05	635
bin	1.73016e-05	579
bin	1.73728e-05	511
bin	1.7444e-05	535
bin	1.75152e-05	508
bin	1.75864e-05	473
bin	1.76576e-05	486
bin	1.77288e-05	536
bin	1.78e-05	535
bin	1.78712e-05	538
bin	1.79424e-05	566
bin	1.80136e-05	584
bin	1.80848e-05	540
bin	1.8156e-05	557
bin	1.82272e-05	560
bin	1.82984e-05	588
bin	1.83696e-05	544
bin	1.84408e-05	509
bin	1.8512e-05	509
bin	1.85832e-05	503
bin	1.86544e-05	461
bin	1.87256e-05	501
bin	1.87968e-05	477
bin	1.8868e-05	477
bin	1.89392e-05	473
bin	1.90104e-05	476
bin	1.90816e-05	487
bin	1.91528e-05	494
bin	1.9224e-05	494
bin	1.92952e-05	531
bin	1.93664e-05	525
bin	1.94376e-05	544
bin	1.95088e-05	554
bin	1.958e-05	534
bin	1.96512e-05	541
bin	1.97224e-05	543
bin	1.97936e-05	547
bin	1.98648e-05	549
bin	1.9936e-05	522
bin	2.00072e-05	506
bin	2.00784e-05	501
bin	2.01496e-05	474
bin	2.02208e-05	480
bin	2.0292e-05	497
bin	2.03632e-05	509
bin	2.04344e-05	497
bin	2.05056e-05	520
bin	2.05768e-05	482
bin	2.0648e-05	496
bin	2.07192e-05	475
bin	2.07904e-05	525
bin	2.08616e-05	536
bin	2.09328e-05	529
bin	2.1004e-05	573
bin	2.10752e-05	549
bin	2.11464e-05	516
bin	2.12176e-05	535
bin	2.12888e-05	575
bin	2.136e-05	558
bin	2.14312e-05	541
bin	2.15024e-05	548
bin	2.15736e-05	575
bin	2.16448e-05	541
bin	2.1716e-05	550
bin	2.17872e-05	539
bin	2.18584e-05	562
bin	2.19296e-05	563
bin	2.20008e-05	558
bin	2.2072e-05	577
bin	2.21432e-05	554
bin	2.22144e-05	543
bin	2.22856e-05	520
bin	2.23568e-05	493
bin	2.2428e-05	486
bin	2.24992e-05	505
bin	2.25704e-05	466
bin	2.26416e-05	454
bin	2.27128e-05	460
bin	2.2784e-05	452
bin	2.28552e-05	472
bin	2.29264e-05	474
bin	2.29976e-05	484
bin	2.30688e-05	479
bin	2.314e-05	498
bin	2.32112e-05	525
bin	2.32824e-05	474
bin	2.33536e-05	480
bin	2.34248e-05	468
bin	2.3496e-05	448
bin	2.35672e-05	455
bin	2.36384e-05	466
bin	2.37096e-05	455
bin	2.37808e-05	500
bin	2.3852e-05	438
bin	2.39232e-05	446
bin	2.39944e-05	405
bin	2.40656e-05	423
bin	2.41368e-05	444
bin	2.4208e-05	461
bin	2.42792e-05	483
bin	2.43504e-05	489
bin	2.44216e-05	486
bin	2.44928e-05	463
bin	2.4564e-05	470
bin	2.46352e-05	430
bin	2.47064e-05	408
bin	2.47776e-05	415
bin	2.48488e-05	475
bin	2.492e-05	460
bin	2.49912e-05	452
bin	2.50624e-05	429
bin	2.51336e-05	461
bin	2.52048e-05	473
bin	2.5276e-05	435
bin	2.53472e-05	427
bin	2.54184e-05	409
bin	2.54896e-05	418
bin	2.55608e-05	454
bin	2.5632e-05	458
bin	2.57032e-05	419
bin	2.57744e-05	414
bin	2.58456e-05	468
bin	2.59168e-05	448
bin	2.5988e-05	492
bin	2.60592e-05	494
bin	2.61304e-05	491
bin	2.62016e-05	480
bin	2.62728e-05	489
bin	2.6344e-05	494
bin	2.64152e-05	514
bin	2.64864e-05	503
bin	2.65576e-05	527
bin	2.66288e-05	519
bin	2.67e-05	520
bin	2.67712e-05	521
bin	2.68424e-05	495
bin	2.69136e-05	519
bin	2.69848e-05	495
bin	2.7056e-05	456
bin	2.71272e-05	441
bin	2.71984e-05	457
bin	2.72696e-05	419
bin	2.73408e-05	477
bin	2.7412e-05	455
bin	2.74832e-05	476
bin	2.75544e-05	478
bin	2.76256e-05	462
bin	2.76968e-05	436
bin	2.7768e-05	467
bin	2.78392e-05	439
bin	2.79104e-05	426
bin	2.79816e-05	466
bin	2.80528e-05	443
bin	2.8124e-05	434
bin	2.81952e-05	416
bin	2.82664e-05	434
bin	2.83376e-05	440
bin	2.84088e-05	448
bin	2.848e-05	452
bin	2.85512e-05	439
bin	2.86224e-05	453
bin	2.86936e-05	451
bin	2.87648e-05	493
bin	2.8836e-05	473
bin	2.89072e-05	461
bin	2.89784e-05	451
bin	2.90496e-05	458
bin	2.91208e-05	457
bin	2.9192e-05	446
bin	2.92632e-05	425
bin	2.93344e-05	451
bin	2.94056e-05	434
bin	2.94768e-05	451
bin	2.9548e-05	455
bin	2.96192e-05	445
bin	2.96904e-05	463
bin	2.97616e-05	448
bin	2.98328e-05	465
bin	2.9904e-05	434
bin	2.99752e-05	424
bin	3.00464e-05	425
bin	3.01176e-05	457
bin	3.01888e-05	484
bin	3.026e-05	467
bin	3.03312e-05	454
bin	3.04024e-05	440
bin	3.04736e-05	442
bin	3.05448e-05	446
bin	3.0616e-05	433
bin	3.06872e-05	461
bin	3.07584e-05	498
bin	3.08296e-05	484
bin	3.09008e-05	534
bin	3.0972e-05	488
bin	3.10432e-05	459
bin	3.11144e-05	453
bin	3.11856e-05	461
bin	3.12568e-05	453
bin	3.1328e-05	464
bin	3.13992e-05	496
bin	3.14704e-05	448
bin	3.15416e-05	412
bin	3.16128e-05	400
bin	3.1684e-05	410
bin	3.17552e-05	348
bin	3.18264e-05	373
bin	3.18976e-05	393
bin	3.19688e-05	399
bin	3.204e-05	400
bin	3.21112e-05	400
bin	3.21824e-05	418
bin	3.22536e-05	406
bin	3.23248e-05	408
bin	3.2396e-05	418
bin	3.24672e-05	436
bin	3.25384e-05	408
bin	3.26096e-05	390
bin	3.26808e-05	430
bin	3.2752e-05	401
bin	3.28232e-05	456
bin	3.28944e-05	433
bin	3.29656e-05	407
bin	3.30368e-05	423
bin	3.3108e-05	408
bin	3.31792e-05	391
bin	3.32504e-05	403
bin	3.33216e-05	416
bin	3.33928e-05	386
bin	3.3464e-05	411
bin	3.35352e-05	417
bin	3.36064e-05	425
bin	3.36776e-05	413
bin	3.37488e-05	425
bin	3.382e-05	435
bin	3.38912e-05	429
bin	3.39624e-05	399
bin	3.40336e-05	379
bin	3.41048e-05	414
bin	3.4176e-05	404
bin	3.42472e-05	379
bin	3.43184e-05	390
bin	3.43896e-05	390
bin	3.44608e-05	405
bin	3.4532e-05	392
bin	3.46032e-05	403
bin	3.46744e-05	392
bin	3.47456e-05	378
bin	3.48168e-05	396
bin	3.4888e-05	395
bin	3.49592e-05	431
bin	3.50304e-05	441
bin	3.51016e-05	434
bin	3.51728e-05	467
bin	3.5244e-05	506
bin	3.53152e-05	483
bin	3.53864e-05	472
bin	3.54576e-05	436
bin	3.55288e-05	449
bin	3.56e-05	5780180
statistic Torus3d_bub.timer 	"Life Times"
field count 6291456
field mean 0.0060157196714424
field stddev 0.0032247061846087
field sum 37847.635621214
field sqrsum 293.1039078319
field min 1.250333333e-06
field max 0.013540290645513
bin	-INF	0
bin	0	0
bin	8.544e-07	66
bin	1.7088e-06	92
bin	2.5632e-06	302
bin	3.4176e-06	577
bin	4.272e-06	974
bin	5.1264e-06	1028
bin	5.9808e-06	1304
bin	6.8352e-06	1310
bin	7.6896e-06	1497
bin	8.544e-06	1796
bin	9.3984e-06	2189
bin	1.02528e-05	2386
bin	1.11072e-05	2751
bin	1.19616e-05	2871
bin	1.2816e-05	2915
bin	1.36704e-05	2967
bin	1.45248e-05	3036
bin	1.53792e-05	3117
bin	1.62336e-05	3098
bin	1.7088e-05	3072
bin	1.79424e-05	3176
bin	1.87968e-05	3210
bin	1.96512e-05	3156
bin	2.05056e-05	3197
bin	2.136e-05	3360
bin	2.22144e-05	3451
bin	2.30688e-05	3498
bin	2.39232e-05	3532
bin	2.47776e-05	3725
bin	2.5632e-05	3757
bin	2.64864e-05	3758
bin	2.73408e-05	3739
bin	2.81952e-05	3897
bin	2.90496e-05	3957
bin	2.9904e-05	3863
bin	3.07584e-05	3896
bin	3.16128e-05	3937
bin	3.24672e-05	4083
bin	3.33216e-05	4170
bin	3.4176e-05	4232
bin	3.50304e-05	4209
bin	3.58848e-05	4228
bin	3.67392e-05	4388
bin	3.75936e-05	4435
bin	3.8448e-05	4329
bin	3.93024e-05	4390
bin	4.01568e-05	4318
bin	4.10112e-05	4369
bin	4.18656e-05	4158
bin	4.272e-05	4055
bin	4.35744e-05	3819
bin	4.44288e-05	3630
bin	4.52832e-05	3588
bin	4.61376e-05	3625
bin	4.6992e-05	3376
bin	4.78464e-05	3311
bin	4.87008e-05	3197
bin	4.95552e-05	3033
bin	5.04096e-05	2881
bin	5.1264e-05	2637
bin	5.21184e-05	2450
bin	5.29728e-05	2375
bin	5.38272e-05	2135
bin	5.46816e-05	2005
bin	5.5536e-05	1866
bin	5.63904e-05	1725
bin	5.72448e-05	1666
bin	5.80992e-05	1563
bin	5.89536e-05	1508
bin	5.9808e-05	1499
bin	6.06624e-05	1438
bin	6.15168e-05	1386
bin	6.23712e-05	1340
bin	6.32256e-05	1320
bin	6.408e-05	1258
bin	6.49344e-05	1241
bin	6.57888e-05	1260
bin	6.66432e-05	1196
bin	6.74976e-05	1184
bin	6.8352e-05	1099
bin	6.92064e-05	1134
bin	7.00608e-05	1200
bin	7.09152e-05	1127
bin	7.17696e-05	1160
bin	7.2624e-05	1108
bin	7.34784e-05	1081
bin	7.43328e-05	1043
bin	7.51872e-05	1085
bin	7.60416e-05	1090
bin	7.6896e-05	1101
bin	7.77504e-05	1067
bin	7.86048e-05	1117
bin	7.94592e-05	1119
bin	8.03136e-05	1107
bin	8.1168e-05	1151
bin	8.20224e-05	1131
bin	8.28768e-05	1072
bin	8.37312e-05	1065
bin	8.45856e-05	1048
bin	8.544e-05	1008
bin	8.62944e-05	1037
bin	8.71488e-05	981
bin	8.80032e-05	937
bin	8.88576e-05	1004
bin	8.9712e-05	957
bin	9.05664e-05	941
bin	9.14208e-05	910
bin	9.22752e-05	908
bin	9.31296e-05	956
bin	9.3984e-05	870
bin	9.48384e-05	859
bin	9.56928e-05	885
bin	9.65472e-05	839
bin	9.74016e-05	816
bin	9.8256e-05	808
bin	9.91104e-05	786
bin	9.99648e-05	819
bin	0.0001008192	840
bin	0.0001016736	842
bin	0.000102528	807
bin	0.0001033824	869
bin	0.0001042368	829
bin	0.0001050912	835
bin	0.0001059456	827
bin	0.0001068	876
bin	0.0001076544	840
bin	0.0001085088	841
bin	0.0001093632	877
bin	0.0001102176	895
bin	0.000111072	892
bin	0.0001119264	927
bin	0.0001127808	844
bin	0.0001136352	872
bin	0.0001144896	840
bin	0.000115344	834
bin	0.0001161984	857
bin	0.0001170528	831
bin	0.0001179072	854
bin	0.0001187616	811
bin	0.000119616	787
bin	0.0001204704	821
bin	0.0001213248	854
bin	0.0001221792	833
bin	0.0001230336	841
bin	0.000123888	827
bin	0.0001247424	818
bin	0.0001255968	781
bin	0.0001264512	789
bin	0.0001273056	809
bin	0.00012816	774
bin	0.0001290144	805
bin	0.0001298688	785
bin	0.0001307232	800
bin	0.0001315776	768
bin	0.000132432	780
bin	0.0001332864	725
bin	0.0001341408	756
bin	0.0001349952	766
bin	0.0001358496	786
bin	0.000136704	737
bin	0.0001375584	768
bin	0.0001384128	781
bin	0.0001392672	805
bin	0.0001401216	752
bin	0.000140976	696
bin	0.0001418304	683
bin	0.0001426848	718
bin	0.0001435392	696
bin	0.0001443936	680
bin	0.000145248	710
bin	0.0001461024	626
bin	0.0001469568	650
bin	0.0001478112	648
bin	0.0001486656	616
bin	0.00014952	665
bin	0.0001503744	661
bin	0.0001512288	637
bin	0.0001520832	650
bin	0.0001529376	631
bin	0.000153792	641
bin	0.0001546464	612
bin	0.0001555008	664
bin	0.0001563552	613
bin	0.0001572096	659
bin	0.000158064	639
bin	0.0001589184	630
bin	0.0001597728	640
bin	0.0001606272	638
bin	0.0001614816	648
bin	0.000162336	655
bin	0.0001631904	638
bin	0.0001640448	638
bin	0.0001648992	636
bin	0.0001657536	676
bin	0.000166608	657
bin	0.0001674624	663
bin	0.0001683168	641
bin	0.0001691712	650
bin	0.0001700256	595
bin	0.00017088	627
bin	0.0001717344	594
bin	0.0001725888	588
bin	0.0001734432	584
bin	0.0001742976	572
bin	0.000175152	578
bin	0.0001760064	582
bin	0.0001768608	603
bin	0.0001777152	621
bin	0.0001785696	598
bin	0.000179424	598
bin	0.0001802784	566
bin	0.0001811328	576
bin	0.0001819872	595
bin	0.0001828416	579
bin	0.000183696	602
bin	0.0001845504	559
bin	0.0001854048	569
bin	0.0001862592	604
bin	0.0001871136	581
bin	0.000187968	552
bin	0.0001888224	579
bin	0.0001896768	564
bin	0.0001905312	598
bin	0.0001913856	544
bin	0.00019224	533
bin	0.0001930944	530
bin	0.0001939488	505
bin	0.0001948032	492
bin	0.0001956576	504
bin	0.000196512	513
bin	0.0001973664	502
bin	0.0001982208	497
bin	0.0001990752	507
bin	0.0001999296	501
bin	0.000200784	489
bin	0.0002016384	525
bin	0.0002024928	518
bin	0.0002033472	523
bin	0.0002042016	510
bin	0.000205056	527
bin	0.0002059104	563
bin	0.0002067648	513
bin	0.0002076192	518
bin	0.0002084736	584
bin	0.000209328	567
bin	0.0002101824	522
bin	0.0002110368	536
bin	0.0002118912	565
bin	0.0002127456	539
bin	0.0002136	532
bin	0.0002144544	563
bin	0.0002153088	557
bin	0.0002161632	536
bin	0.0002170176	574
bin	0.000217872	526
bin	0.0002187264	525
bin	0.0002195808	482
bin	0.0002204352	489
bin	0.0002212896	498
bin	0.000222144	505
bin	0.0002229984	475
bin	0.0002238528	487
bin	0.0002247072	481
bin	0.0002255616	488
bin	0.000226416	458
bin	0.0002272704	467
bin	0.0002281248	436
bin	0.0002289792	453
bin	0.0002298336	442
bin	0.000230688	443
bin	0.0002315424	463
bin	0.0002323968	455
bin	0.0002332512	449
bin	0.0002341056	497
bin	0.00023496	486
bin	0.0002358144	478
bin	0.0002366688	501
bin	0.0002375232	517
bin	0.0002383776	521
bin	0.000239232	546
bin	0.0002400864	516
bin	0.0002409408	469
bin	0.0002417952	462
bin	0.0002426496	506
bin	0.000243504	486
bin	0.0002443584	487
bin	0.0002452128	502
bin	0.0002460672	497
bin	0.0002469216	465
bin	0.000247776	474
bin	0.0002486304	483
bin	0.0002494848	493
bin	0.0002503392	471
bin	0.0002511936	470
bin	0.000252048	500
bin	0.0002529024	460
bin	0.0002537568	445
bin	0.0002546112	457
bin	0.0002554656	463
bin	0.00025632	431
bin	0.0002571744	444
bin	0.0002580288	448
bin	0.0002588832	416
bin	0.0002597376	444
bin	0.000260592	439
bin	0.0002614464	444
bin	0.0002623008	442
bin	0.0002631552	474
bin	0.0002640096	459
bin	0.000264864	463
bin	0.0002657184	427
bin	0.0002665728	452
bin	0.0002674272	422
bin	0.0002682816	413
bin	0.000269136	399
bin	0.0002699904	421
bin	0.0002708448	403
bin	0.0002716992	434
bin	0.0002725536	453
bin	0.000273408	453
bin	0.0002742624	430
bin	0.0002751168	412
bin	0.0002759712	429
bin	0.0002768256	422
bin	0.00027768	444
bin	0.0002785344	429
bin	0.0002793888	461
bin	0.0002802432	447
bin	0.0002810976	439
bin	0.000281952	464
bin	0.0002828064	449
bin	0.0002836608	419
bin	0.0002845152	398
bin	0.0002853696	437
bin	0.000286224	443
bin	0.0002870784	440
bin	0.0002879328	434
bin	0.0002887872	422
bin	0.0002896416	453
bin	0.000290496	408
bin	0.0002913504	418
bin	0.0002922048	426
bin	0.0002930592	449
bin	0.0002939136	447
bin	0.000294768	431
bin	0.0002956224	451
bin	0.0002964768	425
bin	0.0002973312	423
bin	0.0002981856	392
bin	0.00029904	401
bin	0.0002998944	403
bin	0.0003007488	458
bin	0.0003016032	452
bin	0.0003024576	424
bin	0.000303312	410
bin	0.0003041664	413
bin	0.0003050208	422
bin	0.0003058752	391
bin	0.0003067296	400
bin	0.000307584	392
bin	0.0003084384	399
bin	0.0003092928	378
bin	0.0003101472	380
bin	0.0003110016	390
bin	0.000311856	348
bin	0.0003127104	371
bin	0.0003135648	348
bin	0.0003144192	337
bin	0.0003152736	360
bin	0.000316128	355
bin	0.0003169824	344
bin	0.0003178368	363
bin	0.0003186912	363
bin	0.0003195456	391
bin	0.0003204	393
bin	0.0003212544	381
bin	0.0003221088	361
bin	0.0003229632	362
bin	0.0003238176	369
bin	0.000324672	410
bin	0.0003255264	407
bin	0.0003263808	404
bin	0.0003272352	410
bin	0.0003280896	427
bin	0.000328944	441
bin	0.0003297984	430
bin	0.0003306528	418
bin	0.0003315072	426
bin	0.0003323616	393
bin	0.000333216	402
bin	0.0003340704	383
bin	0.0003349248	376
bin	0.0003357792	361
bin	0.0003366336	337
bin	0.000337488	358
bin	0.0003383424	348
bin	0.0003391968	349
bin	0.0003400512	334
bin	0.0003409056	357
bin	0.00034176	349
bin	0.0003426144	351
bin	0.0003434688	341
bin	0.0003443232	329
bin	0.0003451776	336
bin	0.000346032	317
bin	0.0003468864	341
bin	0.0003477408	338
bin	0.0003485952	322
bin	0.0003494496	319
bin	0.000350304	324
bin	0.0003511584	356
bin	0.0003520128	370
bin	0.0003528672	336
bin	0.0003537216	370
bin	0.000354576	355
bin	0.0003554304	389
bin	0.0003562848	372
bin	0.0003571392	382
bin	0.0003579936	375
bin	0.000358848	367
bin	0.0003597024	355
bin	0.0003605568	354
bin	0.0003614112	331
bin	0.0003622656	362
bin	0.00036312	316
bin	0.0003639744	348
bin	0.0003648288	336
bin	0.0003656832	345
bin	0.0003665376	340
bin	0.000367392	358
bin	0.0003682464	359
bin	0.0003691008	359
bin	0.0003699552	345
bin	0.0003708096	338
bin	0.000371664	365
bin	0.0003725184	353
bin	0.0003733728	351
bin	0.0003742272	337
bin	0.0003750816	351
bin	0.000375936	346
bin	0.0003767904	332
bin	0.0003776448	351
bin	0.0003784992	375
bin	0.0003793536	345
bin	0.000380208	354
bin	0.0003810624	360
bin	0.0003819168	347
bin	0.0003827712	321
bin	0.0003836256	340
bin	0.00038448	328
bin	0.0003853344	364
bin	0.0003861888	348
bin	0.0003870432	349
bin	0.0003878976	361
bin	0.000388752	337
bin	0.0003896064	359
bin	0.0003904608	368
bin	0.0003913152	357
bin	0.0003921696	336
bin	0.000393024	299
bin	0.0003938784	313
bin	0.0003947328	309
bin	0.0003955872	274
bin	0.0003964416	302
bin	0.000397296	307
bin	0.0003981504	300
bin	0.0003990048	317
bin	0.0003998592	339
bin	0.0004007136	301
bin	0.000401568	318
bin	0.0004024224	322
bin	0.0004032768	327
bin	0.0004041312	354
bin	0.0004049856	346
bin	0.00040584	377
bin	0.0004066944	358
bin	0.0004075488	358
bin	0.0004084032	355
bin	0.0004092576	342
bin	0.000410112	341
bin	0.0004109664	302
bin	0.0004118208	316
bin	0.0004126752	318
bin	0.0004135296	309
bin	0.000414384	319
bin	0.0004152384	318
bin	0.0004160928	333
bin	0.0004169472	361
bin	0.0004178016	379
bin	0.000418656	357
bin	0.0004195104	360
bin	0.0004203648	343
bin	0.0004212192	364
bin	0.0004220736	343
bin	0.000422928	328
bin	0.0004237824	311
bin	0.0004246368	317
bin	0.0004254912	320
bin	0.0004263456	301
bin	0.0004272	5847146
