version 2
run Bitcomplement-43-20120709-21:48:02-24934
attr alg 3
attr buf 8
attr configname Bitcomplement
attr datetime 20120709-21:48:02
attr delta 0.4
attr experiment Bitcomplement
attr ext false
attr inifile altro.ini
attr iterationvars "$buf=8, $ext=false, $ofedge=2, $delta=0.4, $alg=3"
attr iterationvars2 "$buf=8, $ext=false, $ofedge=2, $delta=0.4, $alg=3, $repetition=0"
attr measurement "$buf=8, $ext=false, $ofedge=2, $delta=0.4, $alg=3"
attr network Torus3d_bub
attr ofedge 2
attr processid 24934
attr repetition 0
attr replication #0
attr resultdir altro-results
attr runnumber 43
attr seedset 43

scalar . 	alg 	3
scalar . 	buf 	8
scalar . 	delta 	0.4
scalar . 	ofedge 	2
scalar Torus3d_bub.timer 	#endTime 	0.013325489646366
scalar Torus3d_bub.timer 	#totalHops 	110193382
scalar Torus3d_bub.timer 	#totalPacks 	6291456
scalar Torus3d_bub.timer 	#totalDerouted 	4728795
scalar Torus3d_bub.timer 	#totalOutFlanked 	2798200
scalar Torus3d_bub.timer 	#totalCQRed 	1930595
scalar Torus3d_bub.timer 	#LB 	0.000786432
scalar Torus3d_bub.timer 	#ratio 	0.059017118385175
statistic Torus3d_bub.timer 	"Hop Times"
field count 6291456
field mean 0.0003369783751998
field stddev 0.00028575387997182
field sum 2120.084620521
field sqrsum 1.2281531898317
field min 4.16777777e-07
field max 0.003517230333333
bin	-INF	0
bin	0	0
bin	7.12e-08	0
bin	1.424e-07	0
bin	2.136e-07	0
bin	2.848e-07	0
bin	3.56e-07	16
bin	4.272e-07	211
bin	4.984e-07	1976
bin	5.696e-07	3024
bin	6.408e-07	3528
bin	7.12e-07	4518
bin	7.832e-07	5441
bin	8.544e-07	6077
bin	9.256e-07	7019
bin	9.968e-07	7608
bin	1.068e-06	7818
bin	1.1392e-06	7853
bin	1.2104e-06	8464
bin	1.2816e-06	8511
bin	1.3528e-06	8943
bin	1.424e-06	8892
bin	1.4952e-06	9027
bin	1.5664e-06	9098
bin	1.6376e-06	9189
bin	1.7088e-06	8995
bin	1.78e-06	9227
bin	1.8512e-06	9204
bin	1.9224e-06	9081
bin	1.9936e-06	9105
bin	2.0648e-06	8913
bin	2.136e-06	9076
bin	2.2072e-06	9110
bin	2.2784e-06	9143
bin	2.3496e-06	9010
bin	2.4208e-06	8933
bin	2.492e-06	8795
bin	2.5632e-06	8669
bin	2.6344e-06	8743
bin	2.7056e-06	8693
bin	2.7768e-06	8754
bin	2.848e-06	8602
bin	2.9192e-06	8559
bin	2.9904e-06	8356
bin	3.0616e-06	8306
bin	3.1328e-06	8166
bin	3.204e-06	8047
bin	3.2752e-06	7980
bin	3.3464e-06	7758
bin	3.4176e-06	7523
bin	3.4888e-06	7358
bin	3.56e-06	6960
bin	3.6312e-06	6879
bin	3.7024e-06	6632
bin	3.7736e-06	6369
bin	3.8448e-06	6005
bin	3.916e-06	5784
bin	3.9872e-06	5641
bin	4.0584e-06	5303
bin	4.1296e-06	5026
bin	4.2008e-06	4669
bin	4.272e-06	4533
bin	4.3432e-06	4427
bin	4.4144e-06	4279
bin	4.4856e-06	3998
bin	4.5568e-06	3827
bin	4.628e-06	3865
bin	4.6992e-06	3751
bin	4.7704e-06	3438
bin	4.8416e-06	3334
bin	4.9128e-06	3239
bin	4.984e-06	3167
bin	5.0552e-06	3156
bin	5.1264e-06	3081
bin	5.1976e-06	2967
bin	5.2688e-06	2880
bin	5.34e-06	2781
bin	5.4112e-06	2797
bin	5.4824e-06	2690
bin	5.5536e-06	2610
bin	5.6248e-06	2527
bin	5.696e-06	2552
bin	5.7672e-06	2479
bin	5.8384e-06	2394
bin	5.9096e-06	2403
bin	5.9808e-06	2424
bin	6.052e-06	2417
bin	6.1232e-06	2420
bin	6.1944e-06	2276
bin	6.2656e-06	2179
bin	6.3368e-06	2124
bin	6.408e-06	2153
bin	6.4792e-06	2118
bin	6.5504e-06	2089
bin	6.6216e-06	1962
bin	6.6928e-06	1975
bin	6.764e-06	2036
bin	6.8352e-06	1999
bin	6.9064e-06	1983
bin	6.9776e-06	1851
bin	7.0488e-06	1769
bin	7.12e-06	1836
bin	7.1912e-06	1798
bin	7.2624e-06	1906
bin	7.3336e-06	1896
bin	7.4048e-06	1785
bin	7.476e-06	1763
bin	7.5472e-06	1768
bin	7.6184e-06	1769
bin	7.6896e-06	1729
bin	7.7608e-06	1777
bin	7.832e-06	1656
bin	7.9032e-06	1712
bin	7.9744e-06	1784
bin	8.0456e-06	1770
bin	8.1168e-06	1689
bin	8.188e-06	1683
bin	8.2592e-06	1621
bin	8.3304e-06	1530
bin	8.4016e-06	1496
bin	8.4728e-06	1582
bin	8.544e-06	1618
bin	8.6152e-06	1594
bin	8.6864e-06	1597
bin	8.7576e-06	1576
bin	8.8288e-06	1493
bin	8.9e-06	1520
bin	8.9712e-06	1517
bin	9.0424e-06	1499
bin	9.1136e-06	1466
bin	9.1848e-06	1485
bin	9.256e-06	1501
bin	9.3272e-06	1430
bin	9.3984e-06	1379
bin	9.4696e-06	1418
bin	9.5408e-06	1446
bin	9.612e-06	1456
bin	9.6832e-06	1502
bin	9.7544e-06	1437
bin	9.8256e-06	1514
bin	9.8968e-06	1544
bin	9.968e-06	1533
bin	1.00392e-05	1499
bin	1.01104e-05	1418
bin	1.01816e-05	1409
bin	1.02528e-05	1380
bin	1.0324e-05	1332
bin	1.03952e-05	1359
bin	1.04664e-05	1378
bin	1.05376e-05	1285
bin	1.06088e-05	1216
bin	1.068e-05	1198
bin	1.07512e-05	1254
bin	1.08224e-05	1241
bin	1.08936e-05	1216
bin	1.09648e-05	1115
bin	1.1036e-05	1153
bin	1.11072e-05	1179
bin	1.11784e-05	1150
bin	1.12496e-05	1217
bin	1.13208e-05	1277
bin	1.1392e-05	1239
bin	1.14632e-05	1183
bin	1.15344e-05	1173
bin	1.16056e-05	1127
bin	1.16768e-05	1169
bin	1.1748e-05	1128
bin	1.18192e-05	1117
bin	1.18904e-05	1131
bin	1.19616e-05	1093
bin	1.20328e-05	1148
bin	1.2104e-05	1082
bin	1.21752e-05	1072
bin	1.22464e-05	1108
bin	1.23176e-05	1133
bin	1.23888e-05	1153
bin	1.246e-05	1120
bin	1.25312e-05	1093
bin	1.26024e-05	1167
bin	1.26736e-05	1168
bin	1.27448e-05	1235
bin	1.2816e-05	1155
bin	1.28872e-05	1186
bin	1.29584e-05	1164
bin	1.30296e-05	1185
bin	1.31008e-05	1185
bin	1.3172e-05	1106
bin	1.32432e-05	1054
bin	1.33144e-05	1030
bin	1.33856e-05	1000
bin	1.34568e-05	976
bin	1.3528e-05	1037
bin	1.35992e-05	1023
bin	1.36704e-05	942
bin	1.37416e-05	1020
bin	1.38128e-05	1007
bin	1.3884e-05	1054
bin	1.39552e-05	987
bin	1.40264e-05	988
bin	1.40976e-05	1028
bin	1.41688e-05	1050
bin	1.424e-05	1023
bin	1.43112e-05	1004
bin	1.43824e-05	970
bin	1.44536e-05	932
bin	1.45248e-05	966
bin	1.4596e-05	873
bin	1.46672e-05	873
bin	1.47384e-05	873
bin	1.48096e-05	950
bin	1.48808e-05	930
bin	1.4952e-05	930
bin	1.50232e-05	950
bin	1.50944e-05	948
bin	1.51656e-05	920
bin	1.52368e-05	929
bin	1.5308e-05	887
bin	1.53792e-05	829
bin	1.54504e-05	890
bin	1.55216e-05	880
bin	1.55928e-05	844
bin	1.5664e-05	829
bin	1.57352e-05	851
bin	1.58064e-05	829
bin	1.58776e-05	854
bin	1.59488e-05	887
bin	1.602e-05	880
bin	1.60912e-05	863
bin	1.61624e-05	799
bin	1.62336e-05	868
bin	1.63048e-05	878
bin	1.6376e-05	982
bin	1.64472e-05	915
bin	1.65184e-05	923
bin	1.65896e-05	970
bin	1.66608e-05	961
bin	1.6732e-05	948
bin	1.68032e-05	945
bin	1.68744e-05	922
bin	1.69456e-05	963
bin	1.70168e-05	913
bin	1.7088e-05	902
bin	1.71592e-05	856
bin	1.72304e-05	877
bin	1.73016e-05	879
bin	1.73728e-05	806
bin	1.7444e-05	798
bin	1.75152e-05	852
bin	1.75864e-05	859
bin	1.76576e-05	816
bin	1.77288e-05	881
bin	1.78e-05	845
bin	1.78712e-05	878
bin	1.79424e-05	915
bin	1.80136e-05	825
bin	1.80848e-05	810
bin	1.8156e-05	772
bin	1.82272e-05	780
bin	1.82984e-05	775
bin	1.83696e-05	787
bin	1.84408e-05	799
bin	1.8512e-05	833
bin	1.85832e-05	800
bin	1.86544e-05	786
bin	1.87256e-05	798
bin	1.87968e-05	800
bin	1.8868e-05	819
bin	1.89392e-05	845
bin	1.90104e-05	788
bin	1.90816e-05	783
bin	1.91528e-05	780
bin	1.9224e-05	787
bin	1.92952e-05	796
bin	1.93664e-05	845
bin	1.94376e-05	800
bin	1.95088e-05	818
bin	1.958e-05	813
bin	1.96512e-05	864
bin	1.97224e-05	867
bin	1.97936e-05	838
bin	1.98648e-05	765
bin	1.9936e-05	808
bin	2.00072e-05	822
bin	2.00784e-05	827
bin	2.01496e-05	815
bin	2.02208e-05	802
bin	2.0292e-05	798
bin	2.03632e-05	770
bin	2.04344e-05	780
bin	2.05056e-05	796
bin	2.05768e-05	764
bin	2.0648e-05	758
bin	2.07192e-05	777
bin	2.07904e-05	690
bin	2.08616e-05	730
bin	2.09328e-05	705
bin	2.1004e-05	695
bin	2.10752e-05	713
bin	2.11464e-05	719
bin	2.12176e-05	625
bin	2.12888e-05	657
bin	2.136e-05	685
bin	2.14312e-05	697
bin	2.15024e-05	684
bin	2.15736e-05	677
bin	2.16448e-05	710
bin	2.1716e-05	680
bin	2.17872e-05	673
bin	2.18584e-05	650
bin	2.19296e-05	685
bin	2.20008e-05	728
bin	2.2072e-05	732
bin	2.21432e-05	707
bin	2.22144e-05	694
bin	2.22856e-05	734
bin	2.23568e-05	777
bin	2.2428e-05	757
bin	2.24992e-05	773
bin	2.25704e-05	774
bin	2.26416e-05	749
bin	2.27128e-05	754
bin	2.2784e-05	774
bin	2.28552e-05	690
bin	2.29264e-05	683
bin	2.29976e-05	688
bin	2.30688e-05	689
bin	2.314e-05	623
bin	2.32112e-05	683
bin	2.32824e-05	685
bin	2.33536e-05	651
bin	2.34248e-05	646
bin	2.3496e-05	643
bin	2.35672e-05	634
bin	2.36384e-05	628
bin	2.37096e-05	624
bin	2.37808e-05	600
bin	2.3852e-05	631
bin	2.39232e-05	663
bin	2.39944e-05	632
bin	2.40656e-05	653
bin	2.41368e-05	640
bin	2.4208e-05	661
bin	2.42792e-05	669
bin	2.43504e-05	672
bin	2.44216e-05	691
bin	2.44928e-05	683
bin	2.4564e-05	696
bin	2.46352e-05	684
bin	2.47064e-05	638
bin	2.47776e-05	632
bin	2.48488e-05	655
bin	2.492e-05	652
bin	2.49912e-05	656
bin	2.50624e-05	653
bin	2.51336e-05	671
bin	2.52048e-05	696
bin	2.5276e-05	712
bin	2.53472e-05	722
bin	2.54184e-05	735
bin	2.54896e-05	714
bin	2.55608e-05	708
bin	2.5632e-05	715
bin	2.57032e-05	651
bin	2.57744e-05	669
bin	2.58456e-05	666
bin	2.59168e-05	712
bin	2.5988e-05	749
bin	2.60592e-05	694
bin	2.61304e-05	719
bin	2.62016e-05	679
bin	2.62728e-05	644
bin	2.6344e-05	648
bin	2.64152e-05	622
bin	2.64864e-05	637
bin	2.65576e-05	648
bin	2.66288e-05	637
bin	2.67e-05	573
bin	2.67712e-05	594
bin	2.68424e-05	580
bin	2.69136e-05	626
bin	2.69848e-05	609
bin	2.7056e-05	633
bin	2.71272e-05	617
bin	2.71984e-05	660
bin	2.72696e-05	651
bin	2.73408e-05	618
bin	2.7412e-05	625
bin	2.74832e-05	657
bin	2.75544e-05	627
bin	2.76256e-05	645
bin	2.76968e-05	664
bin	2.7768e-05	570
bin	2.78392e-05	602
bin	2.79104e-05	530
bin	2.79816e-05	567
bin	2.80528e-05	583
bin	2.8124e-05	612
bin	2.81952e-05	607
bin	2.82664e-05	592
bin	2.83376e-05	578
bin	2.84088e-05	630
bin	2.848e-05	597
bin	2.85512e-05	622
bin	2.86224e-05	617
bin	2.86936e-05	572
bin	2.87648e-05	567
bin	2.8836e-05	635
bin	2.89072e-05	644
bin	2.89784e-05	636
bin	2.90496e-05	575
bin	2.91208e-05	624
bin	2.9192e-05	613
bin	2.92632e-05	658
bin	2.93344e-05	649
bin	2.94056e-05	641
bin	2.94768e-05	643
bin	2.9548e-05	638
bin	2.96192e-05	606
bin	2.96904e-05	631
bin	2.97616e-05	656
bin	2.98328e-05	694
bin	2.9904e-05	668
bin	2.99752e-05	718
bin	3.00464e-05	707
bin	3.01176e-05	694
bin	3.01888e-05	719
bin	3.026e-05	707
bin	3.03312e-05	653
bin	3.04024e-05	658
bin	3.04736e-05	625
bin	3.05448e-05	581
bin	3.0616e-05	607
bin	3.06872e-05	579
bin	3.07584e-05	578
bin	3.08296e-05	499
bin	3.09008e-05	554
bin	3.0972e-05	523
bin	3.10432e-05	582
bin	3.11144e-05	549
bin	3.11856e-05	568
bin	3.12568e-05	619
bin	3.1328e-05	578
bin	3.13992e-05	604
bin	3.14704e-05	548
bin	3.15416e-05	536
bin	3.16128e-05	577
bin	3.1684e-05	595
bin	3.17552e-05	626
bin	3.18264e-05	600
bin	3.18976e-05	642
bin	3.19688e-05	620
bin	3.204e-05	669
bin	3.21112e-05	645
bin	3.21824e-05	688
bin	3.22536e-05	710
bin	3.23248e-05	720
bin	3.2396e-05	700
bin	3.24672e-05	651
bin	3.25384e-05	645
bin	3.26096e-05	622
bin	3.26808e-05	630
bin	3.2752e-05	649
bin	3.28232e-05	666
bin	3.28944e-05	680
bin	3.29656e-05	669
bin	3.30368e-05	655
bin	3.3108e-05	612
bin	3.31792e-05	626
bin	3.32504e-05	636
bin	3.33216e-05	611
bin	3.33928e-05	577
bin	3.3464e-05	543
bin	3.35352e-05	596
bin	3.36064e-05	577
bin	3.36776e-05	614
bin	3.37488e-05	626
bin	3.382e-05	641
bin	3.38912e-05	629
bin	3.39624e-05	635
bin	3.40336e-05	646
bin	3.41048e-05	610
bin	3.4176e-05	611
bin	3.42472e-05	539
bin	3.43184e-05	527
bin	3.43896e-05	612
bin	3.44608e-05	532
bin	3.4532e-05	587
bin	3.46032e-05	574
bin	3.46744e-05	562
bin	3.47456e-05	556
bin	3.48168e-05	584
bin	3.4888e-05	620
bin	3.49592e-05	600
bin	3.50304e-05	585
bin	3.51016e-05	559
bin	3.51728e-05	532
bin	3.5244e-05	567
bin	3.53152e-05	548
bin	3.53864e-05	577
bin	3.54576e-05	547
bin	3.55288e-05	536
bin	3.56e-05	5433398
statistic Torus3d_bub.timer 	"Life Times"
field count 6291456
field mean 0.0052498505502686
field stddev 0.0031802632789471
field sum 33029.203743591
field sqrsum 237.03062817896
field min 1.250333333e-06
field max 0.013195930646366
bin	-INF	0
bin	0	0
bin	8.544e-07	65
bin	1.7088e-06	115
bin	2.5632e-06	391
bin	3.4176e-06	827
bin	4.272e-06	1141
bin	5.1264e-06	1325
bin	5.9808e-06	1651
bin	6.8352e-06	1907
bin	7.6896e-06	2249
bin	8.544e-06	2640
bin	9.3984e-06	3114
bin	1.02528e-05	3444
bin	1.11072e-05	3812
bin	1.19616e-05	4020
bin	1.2816e-05	4092
bin	1.36704e-05	4281
bin	1.45248e-05	4341
bin	1.53792e-05	4370
bin	1.62336e-05	4286
bin	1.7088e-05	4211
bin	1.79424e-05	4394
bin	1.87968e-05	4370
bin	1.96512e-05	4414
bin	2.05056e-05	4511
bin	2.136e-05	4388
bin	2.22144e-05	4496
bin	2.30688e-05	4678
bin	2.39232e-05	4783
bin	2.47776e-05	4968
bin	2.5632e-05	4965
bin	2.64864e-05	5051
bin	2.73408e-05	5185
bin	2.81952e-05	5275
bin	2.90496e-05	5254
bin	2.9904e-05	5527
bin	3.07584e-05	5425
bin	3.16128e-05	5553
bin	3.24672e-05	5712
bin	3.33216e-05	5726
bin	3.4176e-05	5899
bin	3.50304e-05	5809
bin	3.58848e-05	5859
bin	3.67392e-05	5955
bin	3.75936e-05	6057
bin	3.8448e-05	6035
bin	3.93024e-05	5989
bin	4.01568e-05	6122
bin	4.10112e-05	6037
bin	4.18656e-05	6216
bin	4.272e-05	6148
bin	4.35744e-05	6272
bin	4.44288e-05	6306
bin	4.52832e-05	6147
bin	4.61376e-05	6334
bin	4.6992e-05	6273
bin	4.78464e-05	6284
bin	4.87008e-05	6339
bin	4.95552e-05	6395
bin	5.04096e-05	6340
bin	5.1264e-05	6404
bin	5.21184e-05	6303
bin	5.29728e-05	6474
bin	5.38272e-05	6346
bin	5.46816e-05	6392
bin	5.5536e-05	6464
bin	5.63904e-05	6354
bin	5.72448e-05	6361
bin	5.80992e-05	6292
bin	5.89536e-05	6385
bin	5.9808e-05	6289
bin	6.06624e-05	6236
bin	6.15168e-05	6222
bin	6.23712e-05	5877
bin	6.32256e-05	5484
bin	6.408e-05	5260
bin	6.49344e-05	5061
bin	6.57888e-05	4988
bin	6.66432e-05	4676
bin	6.74976e-05	4533
bin	6.8352e-05	4202
bin	6.92064e-05	4091
bin	7.00608e-05	3875
bin	7.09152e-05	3663
bin	7.17696e-05	3365
bin	7.2624e-05	3111
bin	7.34784e-05	2944
bin	7.43328e-05	2791
bin	7.51872e-05	2562
bin	7.60416e-05	2453
bin	7.6896e-05	2353
bin	7.77504e-05	2215
bin	7.86048e-05	2170
bin	7.94592e-05	2036
bin	8.03136e-05	1956
bin	8.1168e-05	1926
bin	8.20224e-05	1816
bin	8.28768e-05	1728
bin	8.37312e-05	1800
bin	8.45856e-05	1732
bin	8.544e-05	1733
bin	8.62944e-05	1649
bin	8.71488e-05	1645
bin	8.80032e-05	1586
bin	8.88576e-05	1541
bin	8.9712e-05	1520
bin	9.05664e-05	1480
bin	9.14208e-05	1492
bin	9.22752e-05	1496
bin	9.31296e-05	1463
bin	9.3984e-05	1425
bin	9.48384e-05	1399
bin	9.56928e-05	1318
bin	9.65472e-05	1378
bin	9.74016e-05	1370
bin	9.8256e-05	1337
bin	9.91104e-05	1367
bin	9.99648e-05	1318
bin	0.0001008192	1278
bin	0.0001016736	1298
bin	0.000102528	1294
bin	0.0001033824	1318
bin	0.0001042368	1310
bin	0.0001050912	1276
bin	0.0001059456	1247
bin	0.0001068	1245
bin	0.0001076544	1263
bin	0.0001085088	1322
bin	0.0001093632	1369
bin	0.0001102176	1347
bin	0.000111072	1306
bin	0.0001119264	1372
bin	0.0001127808	1346
bin	0.0001136352	1318
bin	0.0001144896	1341
bin	0.000115344	1316
bin	0.0001161984	1388
bin	0.0001170528	1431
bin	0.0001179072	1412
bin	0.0001187616	1393
bin	0.000119616	1421
bin	0.0001204704	1420
bin	0.0001213248	1435
bin	0.0001221792	1412
bin	0.0001230336	1394
bin	0.000123888	1444
bin	0.0001247424	1461
bin	0.0001255968	1392
bin	0.0001264512	1384
bin	0.0001273056	1378
bin	0.00012816	1356
bin	0.0001290144	1390
bin	0.0001298688	1425
bin	0.0001307232	1381
bin	0.0001315776	1290
bin	0.000132432	1295
bin	0.0001332864	1272
bin	0.0001341408	1257
bin	0.0001349952	1178
bin	0.0001358496	1207
bin	0.000136704	1208
bin	0.0001375584	1154
bin	0.0001384128	1200
bin	0.0001392672	1177
bin	0.0001401216	1142
bin	0.000140976	1103
bin	0.0001418304	1157
bin	0.0001426848	1108
bin	0.0001435392	1071
bin	0.0001443936	1073
bin	0.000145248	1023
bin	0.0001461024	992
bin	0.0001469568	965
bin	0.0001478112	1032
bin	0.0001486656	916
bin	0.00014952	943
bin	0.0001503744	989
bin	0.0001512288	967
bin	0.0001520832	979
bin	0.0001529376	944
bin	0.000153792	932
bin	0.0001546464	950
bin	0.0001555008	928
bin	0.0001563552	937
bin	0.0001572096	924
bin	0.000158064	846
bin	0.0001589184	875
bin	0.0001597728	903
bin	0.0001606272	863
bin	0.0001614816	876
bin	0.000162336	879
bin	0.0001631904	860
bin	0.0001640448	877
bin	0.0001648992	871
bin	0.0001657536	897
bin	0.000166608	955
bin	0.0001674624	931
bin	0.0001683168	943
bin	0.0001691712	975
bin	0.0001700256	971
bin	0.00017088	941
bin	0.0001717344	898
bin	0.0001725888	887
bin	0.0001734432	869
bin	0.0001742976	919
bin	0.000175152	883
bin	0.0001760064	927
bin	0.0001768608	871
bin	0.0001777152	908
bin	0.0001785696	935
bin	0.000179424	895
bin	0.0001802784	868
bin	0.0001811328	912
bin	0.0001819872	934
bin	0.0001828416	1026
bin	0.000183696	1018
bin	0.0001845504	1075
bin	0.0001854048	1057
bin	0.0001862592	1115
bin	0.0001871136	1056
bin	0.000187968	1045
bin	0.0001888224	1034
bin	0.0001896768	1001
bin	0.0001905312	1003
bin	0.0001913856	978
bin	0.00019224	957
bin	0.0001930944	895
bin	0.0001939488	915
bin	0.0001948032	964
bin	0.0001956576	932
bin	0.000196512	916
bin	0.0001973664	874
bin	0.0001982208	852
bin	0.0001990752	839
bin	0.0001999296	830
bin	0.000200784	797
bin	0.0002016384	786
bin	0.0002024928	804
bin	0.0002033472	789
bin	0.0002042016	777
bin	0.000205056	797
bin	0.0002059104	754
bin	0.0002067648	762
bin	0.0002076192	699
bin	0.0002084736	727
bin	0.000209328	703
bin	0.0002101824	694
bin	0.0002110368	714
bin	0.0002118912	685
bin	0.0002127456	724
bin	0.0002136	686
bin	0.0002144544	702
bin	0.0002153088	688
bin	0.0002161632	694
bin	0.0002170176	674
bin	0.000217872	706
bin	0.0002187264	747
bin	0.0002195808	765
bin	0.0002204352	738
bin	0.0002212896	685
bin	0.000222144	731
bin	0.0002229984	735
bin	0.0002238528	728
bin	0.0002247072	713
bin	0.0002255616	704
bin	0.000226416	716
bin	0.0002272704	772
bin	0.0002281248	753
bin	0.0002289792	683
bin	0.0002298336	713
bin	0.000230688	709
bin	0.0002315424	723
bin	0.0002323968	707
bin	0.0002332512	702
bin	0.0002341056	760
bin	0.00023496	745
bin	0.0002358144	762
bin	0.0002366688	792
bin	0.0002375232	781
bin	0.0002383776	754
bin	0.000239232	785
bin	0.0002400864	772
bin	0.0002409408	765
bin	0.0002417952	756
bin	0.0002426496	794
bin	0.000243504	770
bin	0.0002443584	711
bin	0.0002452128	760
bin	0.0002460672	756
bin	0.0002469216	751
bin	0.000247776	733
bin	0.0002486304	736
bin	0.0002494848	751
bin	0.0002503392	729
bin	0.0002511936	735
bin	0.000252048	745
bin	0.0002529024	729
bin	0.0002537568	738
bin	0.0002546112	726
bin	0.0002554656	702
bin	0.00025632	706
bin	0.0002571744	674
bin	0.0002580288	662
bin	0.0002588832	668
bin	0.0002597376	634
bin	0.000260592	641
bin	0.0002614464	617
bin	0.0002623008	642
bin	0.0002631552	663
bin	0.0002640096	671
bin	0.000264864	677
bin	0.0002657184	673
bin	0.0002665728	685
bin	0.0002674272	672
bin	0.0002682816	652
bin	0.000269136	660
bin	0.0002699904	615
bin	0.0002708448	597
bin	0.0002716992	627
bin	0.0002725536	615
bin	0.000273408	626
bin	0.0002742624	608
bin	0.0002751168	616
bin	0.0002759712	628
bin	0.0002768256	664
bin	0.00027768	625
bin	0.0002785344	626
bin	0.0002793888	635
bin	0.0002802432	611
bin	0.0002810976	629
bin	0.000281952	626
bin	0.0002828064	588
bin	0.0002836608	637
bin	0.0002845152	639
bin	0.0002853696	656
bin	0.000286224	609
bin	0.0002870784	600
bin	0.0002879328	552
bin	0.0002887872	606
bin	0.0002896416	580
bin	0.000290496	637
bin	0.0002913504	621
bin	0.0002922048	643
bin	0.0002930592	638
bin	0.0002939136	621
bin	0.000294768	618
bin	0.0002956224	634
bin	0.0002964768	608
bin	0.0002973312	635
bin	0.0002981856	606
bin	0.00029904	615
bin	0.0002998944	581
bin	0.0003007488	586
bin	0.0003016032	643
bin	0.0003024576	613
bin	0.000303312	619
bin	0.0003041664	588
bin	0.0003050208	613
bin	0.0003058752	605
bin	0.0003067296	634
bin	0.000307584	591
bin	0.0003084384	579
bin	0.0003092928	572
bin	0.0003101472	584
bin	0.0003110016	621
bin	0.000311856	629
bin	0.0003127104	638
bin	0.0003135648	611
bin	0.0003144192	653
bin	0.0003152736	610
bin	0.000316128	632
bin	0.0003169824	600
bin	0.0003178368	645
bin	0.0003186912	616
bin	0.0003195456	613
bin	0.0003204	655
bin	0.0003212544	656
bin	0.0003221088	655
bin	0.0003229632	608
bin	0.0003238176	650
bin	0.000324672	622
bin	0.0003255264	622
bin	0.0003263808	618
bin	0.0003272352	627
bin	0.0003280896	593
bin	0.000328944	573
bin	0.0003297984	572
bin	0.0003306528	560
bin	0.0003315072	554
bin	0.0003323616	560
bin	0.000333216	543
bin	0.0003340704	544
bin	0.0003349248	538
bin	0.0003357792	521
bin	0.0003366336	563
bin	0.000337488	538
bin	0.0003383424	575
bin	0.0003391968	528
bin	0.0003400512	544
bin	0.0003409056	531
bin	0.00034176	520
bin	0.0003426144	507
bin	0.0003434688	524
bin	0.0003443232	526
bin	0.0003451776	493
bin	0.000346032	506
bin	0.0003468864	522
bin	0.0003477408	494
bin	0.0003485952	501
bin	0.0003494496	509
bin	0.000350304	536
bin	0.0003511584	474
bin	0.0003520128	483
bin	0.0003528672	493
bin	0.0003537216	468
bin	0.000354576	491
bin	0.0003554304	471
bin	0.0003562848	489
bin	0.0003571392	516
bin	0.0003579936	477
bin	0.000358848	465
bin	0.0003597024	489
bin	0.0003605568	461
bin	0.0003614112	473
bin	0.0003622656	469
bin	0.00036312	497
bin	0.0003639744	522
bin	0.0003648288	520
bin	0.0003656832	512
bin	0.0003665376	537
bin	0.000367392	545
bin	0.0003682464	587
bin	0.0003691008	622
bin	0.0003699552	567
bin	0.0003708096	567
bin	0.000371664	593
bin	0.0003725184	541
bin	0.0003733728	553
bin	0.0003742272	575
bin	0.0003750816	598
bin	0.000375936	571
bin	0.0003767904	587
bin	0.0003776448	592
bin	0.0003784992	599
bin	0.0003793536	585
bin	0.000380208	551
bin	0.0003810624	521
bin	0.0003819168	531
bin	0.0003827712	518
bin	0.0003836256	554
bin	0.00038448	531
bin	0.0003853344	541
bin	0.0003861888	527
bin	0.0003870432	495
bin	0.0003878976	489
bin	0.000388752	519
bin	0.0003896064	532
bin	0.0003904608	486
bin	0.0003913152	486
bin	0.0003921696	456
bin	0.000393024	439
bin	0.0003938784	452
bin	0.0003947328	467
bin	0.0003955872	447
bin	0.0003964416	470
bin	0.000397296	470
bin	0.0003981504	480
bin	0.0003990048	478
bin	0.0003998592	483
bin	0.0004007136	474
bin	0.000401568	454
bin	0.0004024224	449
bin	0.0004032768	432
bin	0.0004041312	420
bin	0.0004049856	446
bin	0.00040584	470
bin	0.0004066944	457
bin	0.0004075488	446
bin	0.0004084032	448
bin	0.0004092576	458
bin	0.000410112	440
bin	0.0004109664	463
bin	0.0004118208	474
bin	0.0004126752	492
bin	0.0004135296	476
bin	0.000414384	468
bin	0.0004152384	489
bin	0.0004160928	477
bin	0.0004169472	496
bin	0.0004178016	518
bin	0.000418656	518
bin	0.0004195104	511
bin	0.0004203648	511
bin	0.0004212192	480
bin	0.0004220736	496
bin	0.000422928	494
bin	0.0004237824	508
bin	0.0004246368	507
bin	0.0004254912	514
bin	0.0004263456	531
bin	0.0004272	5535424
