version 2
run Bitcomplement-27-20120709-20:25:59-24905
attr alg 3
attr buf 8
attr configname Bitcomplement
attr datetime 20120709-20:25:59
attr delta 0.2
attr experiment Bitcomplement
attr ext false
attr inifile altro.ini
attr iterationvars "$buf=8, $ext=false, $ofedge=1, $delta=0.2, $alg=3"
attr iterationvars2 "$buf=8, $ext=false, $ofedge=1, $delta=0.2, $alg=3, $repetition=0"
attr measurement "$buf=8, $ext=false, $ofedge=1, $delta=0.2, $alg=3"
attr network Torus3d_bub
attr ofedge 1
attr processid 24905
attr repetition 0
attr replication #0
attr resultdir altro-results
attr runnumber 27
attr seedset 27

scalar . 	alg 	3
scalar . 	buf 	8
scalar . 	delta 	0.2
scalar . 	ofedge 	1
scalar Torus3d_bub.timer 	#endTime 	0.006658465656761
scalar Torus3d_bub.timer 	#totalHops 	91314507
scalar Torus3d_bub.timer 	#totalPacks 	6291456
scalar Torus3d_bub.timer 	#totalDerouted 	3281027
scalar Torus3d_bub.timer 	#totalOutFlanked 	2350541
scalar Torus3d_bub.timer 	#totalCQRed 	930486
scalar Torus3d_bub.timer 	#LB 	0.000786432
scalar Torus3d_bub.timer 	#ratio 	0.11811009330678
statistic Torus3d_bub.timer 	"Hop Times"
field count 6291456
field mean 2.5104253389242e-05
field stddev 7.6215686987666e-05
field sum 157.94230561127
field sqrsum 0.040511022141451
field min 4.16777777e-07
field max 0.001912035444444
bin	-INF	0
bin	0	0
bin	7.12e-08	0
bin	1.424e-07	0
bin	2.136e-07	0
bin	2.848e-07	0
bin	3.56e-07	19
bin	4.272e-07	2150
bin	4.984e-07	16185
bin	5.696e-07	25932
bin	6.408e-07	24956
bin	7.12e-07	25159
bin	7.832e-07	26672
bin	8.544e-07	31964
bin	9.256e-07	38272
bin	9.968e-07	45689
bin	1.068e-06	52359
bin	1.1392e-06	57821
bin	1.2104e-06	62438
bin	1.2816e-06	65877
bin	1.3528e-06	69936
bin	1.424e-06	72839
bin	1.4952e-06	74498
bin	1.5664e-06	74396
bin	1.6376e-06	73591
bin	1.7088e-06	72009
bin	1.78e-06	71652
bin	1.8512e-06	70425
bin	1.9224e-06	69247
bin	1.9936e-06	68810
bin	2.0648e-06	68052
bin	2.136e-06	67021
bin	2.2072e-06	66168
bin	2.2784e-06	65449
bin	2.3496e-06	64276
bin	2.4208e-06	64591
bin	2.492e-06	63909
bin	2.5632e-06	63600
bin	2.6344e-06	63213
bin	2.7056e-06	62888
bin	2.7768e-06	62495
bin	2.848e-06	62766
bin	2.9192e-06	62342
bin	2.9904e-06	62270
bin	3.0616e-06	61768
bin	3.1328e-06	60465
bin	3.204e-06	60318
bin	3.2752e-06	60070
bin	3.3464e-06	59676
bin	3.4176e-06	59216
bin	3.4888e-06	58745
bin	3.56e-06	58010
bin	3.6312e-06	57625
bin	3.7024e-06	57033
bin	3.7736e-06	56988
bin	3.8448e-06	56192
bin	3.916e-06	55089
bin	3.9872e-06	54522
bin	4.0584e-06	53662
bin	4.1296e-06	52851
bin	4.2008e-06	51406
bin	4.272e-06	50772
bin	4.3432e-06	50062
bin	4.4144e-06	49202
bin	4.4856e-06	48732
bin	4.5568e-06	48469
bin	4.628e-06	46962
bin	4.6992e-06	46413
bin	4.7704e-06	46352
bin	4.8416e-06	45273
bin	4.9128e-06	44761
bin	4.984e-06	44138
bin	5.0552e-06	43156
bin	5.1264e-06	42352
bin	5.1976e-06	41992
bin	5.2688e-06	41189
bin	5.34e-06	40172
bin	5.4112e-06	39769
bin	5.4824e-06	39420
bin	5.5536e-06	38202
bin	5.6248e-06	37227
bin	5.696e-06	36394
bin	5.7672e-06	36283
bin	5.8384e-06	35123
bin	5.9096e-06	34389
bin	5.9808e-06	33600
bin	6.052e-06	32732
bin	6.1232e-06	32295
bin	6.1944e-06	31763
bin	6.2656e-06	30850
bin	6.3368e-06	30034
bin	6.408e-06	29514
bin	6.4792e-06	28953
bin	6.5504e-06	27978
bin	6.6216e-06	26821
bin	6.6928e-06	26772
bin	6.764e-06	25701
bin	6.8352e-06	25171
bin	6.9064e-06	24678
bin	6.9776e-06	24185
bin	7.0488e-06	23652
bin	7.12e-06	23261
bin	7.1912e-06	23039
bin	7.2624e-06	22460
bin	7.3336e-06	21952
bin	7.4048e-06	21076
bin	7.476e-06	20587
bin	7.5472e-06	20018
bin	7.6184e-06	19240
bin	7.6896e-06	18815
bin	7.7608e-06	18476
bin	7.832e-06	17912
bin	7.9032e-06	17326
bin	7.9744e-06	16989
bin	8.0456e-06	16517
bin	8.1168e-06	16366
bin	8.188e-06	15574
bin	8.2592e-06	15340
bin	8.3304e-06	14573
bin	8.4016e-06	14019
bin	8.4728e-06	13614
bin	8.544e-06	13227
bin	8.6152e-06	12842
bin	8.6864e-06	12461
bin	8.7576e-06	12149
bin	8.8288e-06	11580
bin	8.9e-06	11579
bin	8.9712e-06	11145
bin	9.0424e-06	11123
bin	9.1136e-06	10506
bin	9.1848e-06	10503
bin	9.256e-06	10179
bin	9.3272e-06	10062
bin	9.3984e-06	9888
bin	9.4696e-06	9749
bin	9.5408e-06	9534
bin	9.612e-06	9031
bin	9.6832e-06	9032
bin	9.7544e-06	8694
bin	9.8256e-06	8627
bin	9.8968e-06	8217
bin	9.968e-06	8279
bin	1.00392e-05	7881
bin	1.01104e-05	7691
bin	1.01816e-05	7395
bin	1.02528e-05	7334
bin	1.0324e-05	7027
bin	1.03952e-05	6774
bin	1.04664e-05	6587
bin	1.05376e-05	6430
bin	1.06088e-05	6217
bin	1.068e-05	6028
bin	1.07512e-05	5945
bin	1.08224e-05	5724
bin	1.08936e-05	5682
bin	1.09648e-05	5493
bin	1.1036e-05	5377
bin	1.11072e-05	5235
bin	1.11784e-05	5269
bin	1.12496e-05	4916
bin	1.13208e-05	4847
bin	1.1392e-05	4630
bin	1.14632e-05	4649
bin	1.15344e-05	4564
bin	1.16056e-05	4463
bin	1.16768e-05	4414
bin	1.1748e-05	4401
bin	1.18192e-05	4233
bin	1.18904e-05	4020
bin	1.19616e-05	4072
bin	1.20328e-05	4074
bin	1.2104e-05	3992
bin	1.21752e-05	4017
bin	1.22464e-05	3946
bin	1.23176e-05	3971
bin	1.23888e-05	3914
bin	1.246e-05	3887
bin	1.25312e-05	3908
bin	1.26024e-05	3746
bin	1.26736e-05	3727
bin	1.27448e-05	3671
bin	1.2816e-05	3559
bin	1.28872e-05	3332
bin	1.29584e-05	3503
bin	1.30296e-05	3427
bin	1.31008e-05	3160
bin	1.3172e-05	3266
bin	1.32432e-05	3163
bin	1.33144e-05	3197
bin	1.33856e-05	3116
bin	1.34568e-05	3084
bin	1.3528e-05	3006
bin	1.35992e-05	3029
bin	1.36704e-05	2929
bin	1.37416e-05	2937
bin	1.38128e-05	3063
bin	1.3884e-05	2915
bin	1.39552e-05	2925
bin	1.40264e-05	2917
bin	1.40976e-05	2942
bin	1.41688e-05	2953
bin	1.424e-05	2744
bin	1.43112e-05	2685
bin	1.43824e-05	2592
bin	1.44536e-05	2476
bin	1.45248e-05	2418
bin	1.4596e-05	2312
bin	1.46672e-05	2274
bin	1.47384e-05	2161
bin	1.48096e-05	2053
bin	1.48808e-05	2029
bin	1.4952e-05	1988
bin	1.50232e-05	1940
bin	1.50944e-05	1912
bin	1.51656e-05	1711
bin	1.52368e-05	1780
bin	1.5308e-05	1759
bin	1.53792e-05	1721
bin	1.54504e-05	1603
bin	1.55216e-05	1569
bin	1.55928e-05	1640
bin	1.5664e-05	1637
bin	1.57352e-05	1671
bin	1.58064e-05	1654
bin	1.58776e-05	1665
bin	1.59488e-05	1687
bin	1.602e-05	1701
bin	1.60912e-05	1621
bin	1.61624e-05	1518
bin	1.62336e-05	1570
bin	1.63048e-05	1553
bin	1.6376e-05	1552
bin	1.64472e-05	1657
bin	1.65184e-05	1539
bin	1.65896e-05	1515
bin	1.66608e-05	1559
bin	1.6732e-05	1473
bin	1.68032e-05	1599
bin	1.68744e-05	1431
bin	1.69456e-05	1392
bin	1.70168e-05	1397
bin	1.7088e-05	1338
bin	1.71592e-05	1216
bin	1.72304e-05	1307
bin	1.73016e-05	1221
bin	1.73728e-05	1186
bin	1.7444e-05	1279
bin	1.75152e-05	1125
bin	1.75864e-05	1251
bin	1.76576e-05	1185
bin	1.77288e-05	1142
bin	1.78e-05	1075
bin	1.78712e-05	1158
bin	1.79424e-05	1116
bin	1.80136e-05	1116
bin	1.80848e-05	1109
bin	1.8156e-05	1144
bin	1.82272e-05	1223
bin	1.82984e-05	1135
bin	1.83696e-05	1268
bin	1.84408e-05	1194
bin	1.8512e-05	1156
bin	1.85832e-05	1234
bin	1.86544e-05	1271
bin	1.87256e-05	1281
bin	1.87968e-05	1211
bin	1.8868e-05	1297
bin	1.89392e-05	1216
bin	1.90104e-05	1307
bin	1.90816e-05	1141
bin	1.91528e-05	1285
bin	1.9224e-05	1332
bin	1.92952e-05	1207
bin	1.93664e-05	1217
bin	1.94376e-05	1223
bin	1.95088e-05	1156
bin	1.958e-05	1149
bin	1.96512e-05	1136
bin	1.97224e-05	1232
bin	1.97936e-05	1164
bin	1.98648e-05	1088
bin	1.9936e-05	1131
bin	2.00072e-05	1070
bin	2.00784e-05	998
bin	2.01496e-05	1070
bin	2.02208e-05	1045
bin	2.0292e-05	983
bin	2.03632e-05	903
bin	2.04344e-05	955
bin	2.05056e-05	942
bin	2.05768e-05	900
bin	2.0648e-05	911
bin	2.07192e-05	945
bin	2.07904e-05	896
bin	2.08616e-05	830
bin	2.09328e-05	865
bin	2.1004e-05	900
bin	2.10752e-05	788
bin	2.11464e-05	832
bin	2.12176e-05	821
bin	2.12888e-05	839
bin	2.136e-05	869
bin	2.14312e-05	855
bin	2.15024e-05	932
bin	2.15736e-05	914
bin	2.16448e-05	938
bin	2.1716e-05	873
bin	2.17872e-05	900
bin	2.18584e-05	847
bin	2.19296e-05	825
bin	2.20008e-05	860
bin	2.2072e-05	832
bin	2.21432e-05	831
bin	2.22144e-05	739
bin	2.22856e-05	792
bin	2.23568e-05	711
bin	2.2428e-05	711
bin	2.24992e-05	697
bin	2.25704e-05	686
bin	2.26416e-05	666
bin	2.27128e-05	640
bin	2.2784e-05	642
bin	2.28552e-05	607
bin	2.29264e-05	580
bin	2.29976e-05	575
bin	2.30688e-05	571
bin	2.314e-05	570
bin	2.32112e-05	588
bin	2.32824e-05	563
bin	2.33536e-05	571
bin	2.34248e-05	546
bin	2.3496e-05	543
bin	2.35672e-05	541
bin	2.36384e-05	533
bin	2.37096e-05	516
bin	2.37808e-05	545
bin	2.3852e-05	518
bin	2.39232e-05	522
bin	2.39944e-05	492
bin	2.40656e-05	565
bin	2.41368e-05	550
bin	2.4208e-05	500
bin	2.42792e-05	523
bin	2.43504e-05	546
bin	2.44216e-05	545
bin	2.44928e-05	605
bin	2.4564e-05	543
bin	2.46352e-05	503
bin	2.47064e-05	514
bin	2.47776e-05	528
bin	2.48488e-05	519
bin	2.492e-05	502
bin	2.49912e-05	514
bin	2.50624e-05	484
bin	2.51336e-05	473
bin	2.52048e-05	463
bin	2.5276e-05	435
bin	2.53472e-05	490
bin	2.54184e-05	475
bin	2.54896e-05	471
bin	2.55608e-05	459
bin	2.5632e-05	410
bin	2.57032e-05	398
bin	2.57744e-05	407
bin	2.58456e-05	364
bin	2.59168e-05	385
bin	2.5988e-05	351
bin	2.60592e-05	381
bin	2.61304e-05	402
bin	2.62016e-05	374
bin	2.62728e-05	399
bin	2.6344e-05	395
bin	2.64152e-05	416
bin	2.64864e-05	399
bin	2.65576e-05	371
bin	2.66288e-05	377
bin	2.67e-05	401
bin	2.67712e-05	372
bin	2.68424e-05	413
bin	2.69136e-05	429
bin	2.69848e-05	390
bin	2.7056e-05	392
bin	2.71272e-05	411
bin	2.71984e-05	412
bin	2.72696e-05	401
bin	2.73408e-05	383
bin	2.7412e-05	417
bin	2.74832e-05	437
bin	2.75544e-05	424
bin	2.76256e-05	398
bin	2.76968e-05	389
bin	2.7768e-05	395
bin	2.78392e-05	447
bin	2.79104e-05	467
bin	2.79816e-05	471
bin	2.80528e-05	483
bin	2.8124e-05	460
bin	2.81952e-05	480
bin	2.82664e-05	512
bin	2.83376e-05	455
bin	2.84088e-05	460
bin	2.848e-05	470
bin	2.85512e-05	451
bin	2.86224e-05	495
bin	2.86936e-05	516
bin	2.87648e-05	490
bin	2.8836e-05	483
bin	2.89072e-05	428
bin	2.89784e-05	393
bin	2.90496e-05	430
bin	2.91208e-05	381
bin	2.9192e-05	396
bin	2.92632e-05	395
bin	2.93344e-05	355
bin	2.94056e-05	382
bin	2.94768e-05	434
bin	2.9548e-05	374
bin	2.96192e-05	350
bin	2.96904e-05	325
bin	2.97616e-05	347
bin	2.98328e-05	346
bin	2.9904e-05	359
bin	2.99752e-05	285
bin	3.00464e-05	322
bin	3.01176e-05	293
bin	3.01888e-05	357
bin	3.026e-05	381
bin	3.03312e-05	331
bin	3.04024e-05	336
bin	3.04736e-05	319
bin	3.05448e-05	350
bin	3.0616e-05	332
bin	3.06872e-05	317
bin	3.07584e-05	340
bin	3.08296e-05	334
bin	3.09008e-05	288
bin	3.0972e-05	351
bin	3.10432e-05	391
bin	3.11144e-05	359
bin	3.11856e-05	363
bin	3.12568e-05	341
bin	3.1328e-05	393
bin	3.13992e-05	420
bin	3.14704e-05	416
bin	3.15416e-05	425
bin	3.16128e-05	430
bin	3.1684e-05	360
bin	3.17552e-05	394
bin	3.18264e-05	434
bin	3.18976e-05	434
bin	3.19688e-05	432
bin	3.204e-05	377
bin	3.21112e-05	489
bin	3.21824e-05	457
bin	3.22536e-05	484
bin	3.23248e-05	540
bin	3.2396e-05	550
bin	3.24672e-05	487
bin	3.25384e-05	602
bin	3.26096e-05	560
bin	3.26808e-05	550
bin	3.2752e-05	507
bin	3.28232e-05	456
bin	3.28944e-05	580
bin	3.29656e-05	581
bin	3.30368e-05	562
bin	3.3108e-05	525
bin	3.31792e-05	572
bin	3.32504e-05	454
bin	3.33216e-05	540
bin	3.33928e-05	525
bin	3.3464e-05	525
bin	3.35352e-05	483
bin	3.36064e-05	422
bin	3.36776e-05	501
bin	3.37488e-05	460
bin	3.382e-05	464
bin	3.38912e-05	389
bin	3.39624e-05	499
bin	3.40336e-05	386
bin	3.41048e-05	406
bin	3.4176e-05	404
bin	3.42472e-05	386
bin	3.43184e-05	389
bin	3.43896e-05	358
bin	3.44608e-05	364
bin	3.4532e-05	404
bin	3.46032e-05	350
bin	3.46744e-05	397
bin	3.47456e-05	399
bin	3.48168e-05	339
bin	3.4888e-05	405
bin	3.49592e-05	400
bin	3.50304e-05	367
bin	3.51016e-05	372
bin	3.51728e-05	344
bin	3.5244e-05	376
bin	3.53152e-05	375
bin	3.53864e-05	340
bin	3.54576e-05	384
bin	3.55288e-05	375
bin	3.56e-05	661308
statistic Torus3d_bub.timer 	"Life Times"
field count 6291456
field mean 0.00029293441295883
field stddev 0.0007556086323167
field sum 1842.9839700163
field sqrsum 4.131944460365
field min 1.250333333e-06
field max 0.006410634656761
bin	-INF	0
bin	0	0
bin	8.544e-07	324
bin	1.7088e-06	1804
bin	2.5632e-06	3807
bin	3.4176e-06	7303
bin	4.272e-06	11200
bin	5.1264e-06	13640
bin	5.9808e-06	13748
bin	6.8352e-06	13724
bin	7.6896e-06	14925
bin	8.544e-06	17422
bin	9.3984e-06	19931
bin	1.02528e-05	22653
bin	1.11072e-05	24354
bin	1.19616e-05	24917
bin	1.2816e-05	26256
bin	1.36704e-05	27232
bin	1.45248e-05	27788
bin	1.53792e-05	29095
bin	1.62336e-05	30649
bin	1.7088e-05	31500
bin	1.79424e-05	33061
bin	1.87968e-05	34205
bin	1.96512e-05	36122
bin	2.05056e-05	38339
bin	2.136e-05	40776
bin	2.22144e-05	41343
bin	2.30688e-05	42644
bin	2.39232e-05	44469
bin	2.47776e-05	46008
bin	2.5632e-05	46187
bin	2.64864e-05	47558
bin	2.73408e-05	49493
bin	2.81952e-05	49269
bin	2.90496e-05	50209
bin	2.9904e-05	50767
bin	3.07584e-05	51296
bin	3.16128e-05	51758
bin	3.24672e-05	52057
bin	3.33216e-05	52786
bin	3.4176e-05	53854
bin	3.50304e-05	53176
bin	3.58848e-05	53905
bin	3.67392e-05	54654
bin	3.75936e-05	54669
bin	3.8448e-05	55182
bin	3.93024e-05	55678
bin	4.01568e-05	55808
bin	4.10112e-05	56652
bin	4.18656e-05	56374
bin	4.272e-05	56541
bin	4.35744e-05	56844
bin	4.44288e-05	56324
bin	4.52832e-05	56693
bin	4.61376e-05	57049
bin	4.6992e-05	56881
bin	4.78464e-05	56397
bin	4.87008e-05	56930
bin	4.95552e-05	56680
bin	5.04096e-05	56731
bin	5.1264e-05	56124
bin	5.21184e-05	56239
bin	5.29728e-05	56111
bin	5.38272e-05	54896
bin	5.46816e-05	54840
bin	5.5536e-05	55175
bin	5.63904e-05	54439
bin	5.72448e-05	54628
bin	5.80992e-05	54030
bin	5.89536e-05	53406
bin	5.9808e-05	53385
bin	6.06624e-05	53070
bin	6.15168e-05	52091
bin	6.23712e-05	52018
bin	6.32256e-05	51150
bin	6.408e-05	51342
bin	6.49344e-05	51186
bin	6.57888e-05	50571
bin	6.66432e-05	49924
bin	6.74976e-05	49502
bin	6.8352e-05	49074
bin	6.92064e-05	48471
bin	7.00608e-05	47995
bin	7.09152e-05	47704
bin	7.17696e-05	47657
bin	7.2624e-05	46435
bin	7.34784e-05	46469
bin	7.43328e-05	45858
bin	7.51872e-05	46079
bin	7.60416e-05	44949
bin	7.6896e-05	44477
bin	7.77504e-05	44360
bin	7.86048e-05	44247
bin	7.94592e-05	43864
bin	8.03136e-05	43322
bin	8.1168e-05	43019
bin	8.20224e-05	42036
bin	8.28768e-05	41369
bin	8.37312e-05	40671
bin	8.45856e-05	40256
bin	8.544e-05	39102
bin	8.62944e-05	37757
bin	8.71488e-05	37432
bin	8.80032e-05	36305
bin	8.88576e-05	35531
bin	8.9712e-05	34491
bin	9.05664e-05	33696
bin	9.14208e-05	33129
bin	9.22752e-05	32154
bin	9.31296e-05	31591
bin	9.3984e-05	30769
bin	9.48384e-05	29905
bin	9.56928e-05	28963
bin	9.65472e-05	28678
bin	9.74016e-05	28024
bin	9.8256e-05	27453
bin	9.91104e-05	26520
bin	9.99648e-05	25570
bin	0.0001008192	24487
bin	0.0001016736	23649
bin	0.000102528	22473
bin	0.0001033824	21701
bin	0.0001042368	20630
bin	0.0001050912	20311
bin	0.0001059456	19624
bin	0.0001068	18869
bin	0.0001076544	18526
bin	0.0001085088	17854
bin	0.0001093632	17406
bin	0.0001102176	17073
bin	0.000111072	16554
bin	0.0001119264	15885
bin	0.0001127808	15368
bin	0.0001136352	14667
bin	0.0001144896	14100
bin	0.000115344	13600
bin	0.0001161984	13061
bin	0.0001170528	12655
bin	0.0001179072	12286
bin	0.0001187616	11701
bin	0.000119616	11488
bin	0.0001204704	11226
bin	0.0001213248	10911
bin	0.0001221792	10448
bin	0.0001230336	9971
bin	0.000123888	8923
bin	0.0001247424	7864
bin	0.0001255968	6868
bin	0.0001264512	6327
bin	0.0001273056	5831
bin	0.00012816	5070
bin	0.0001290144	4484
bin	0.0001298688	4166
bin	0.0001307232	3478
bin	0.0001315776	3176
bin	0.000132432	2863
bin	0.0001332864	2545
bin	0.0001341408	2288
bin	0.0001349952	2137
bin	0.0001358496	1900
bin	0.000136704	1830
bin	0.0001375584	1659
bin	0.0001384128	1564
bin	0.0001392672	1479
bin	0.0001401216	1402
bin	0.000140976	1391
bin	0.0001418304	1249
bin	0.0001426848	1263
bin	0.0001435392	1218
bin	0.0001443936	1202
bin	0.000145248	1205
bin	0.0001461024	1171
bin	0.0001469568	1141
bin	0.0001478112	1209
bin	0.0001486656	1155
bin	0.00014952	1168
bin	0.0001503744	1060
bin	0.0001512288	1031
bin	0.0001520832	1077
bin	0.0001529376	1106
bin	0.000153792	1132
bin	0.0001546464	1119
bin	0.0001555008	1052
bin	0.0001563552	1022
bin	0.0001572096	1032
bin	0.000158064	1027
bin	0.0001589184	971
bin	0.0001597728	981
bin	0.0001606272	1025
bin	0.0001614816	1014
bin	0.000162336	994
bin	0.0001631904	980
bin	0.0001640448	1030
bin	0.0001648992	998
bin	0.0001657536	1012
bin	0.000166608	1052
bin	0.0001674624	937
bin	0.0001683168	949
bin	0.0001691712	906
bin	0.0001700256	897
bin	0.00017088	941
bin	0.0001717344	873
bin	0.0001725888	915
bin	0.0001734432	849
bin	0.0001742976	859
bin	0.000175152	850
bin	0.0001760064	919
bin	0.0001768608	877
bin	0.0001777152	828
bin	0.0001785696	835
bin	0.000179424	868
bin	0.0001802784	787
bin	0.0001811328	787
bin	0.0001819872	851
bin	0.0001828416	817
bin	0.000183696	854
bin	0.0001845504	857
bin	0.0001854048	811
bin	0.0001862592	836
bin	0.0001871136	810
bin	0.000187968	783
bin	0.0001888224	763
bin	0.0001896768	827
bin	0.0001905312	845
bin	0.0001913856	799
bin	0.00019224	857
bin	0.0001930944	873
bin	0.0001939488	806
bin	0.0001948032	830
bin	0.0001956576	900
bin	0.000196512	838
bin	0.0001973664	874
bin	0.0001982208	878
bin	0.0001990752	883
bin	0.0001999296	893
bin	0.000200784	854
bin	0.0002016384	907
bin	0.0002024928	879
bin	0.0002033472	892
bin	0.0002042016	909
bin	0.000205056	907
bin	0.0002059104	891
bin	0.0002067648	892
bin	0.0002076192	912
bin	0.0002084736	906
bin	0.000209328	928
bin	0.0002101824	955
bin	0.0002110368	960
bin	0.0002118912	923
bin	0.0002127456	893
bin	0.0002136	935
bin	0.0002144544	988
bin	0.0002153088	956
bin	0.0002161632	1025
bin	0.0002170176	1012
bin	0.000217872	1076
bin	0.0002187264	1032
bin	0.0002195808	997
bin	0.0002204352	1001
bin	0.0002212896	1090
bin	0.000222144	1085
bin	0.0002229984	1076
bin	0.0002238528	1151
bin	0.0002247072	1182
bin	0.0002255616	1196
bin	0.000226416	1178
bin	0.0002272704	1178
bin	0.0002281248	1228
bin	0.0002289792	1283
bin	0.0002298336	1235
bin	0.000230688	1239
bin	0.0002315424	1249
bin	0.0002323968	1233
bin	0.0002332512	1245
bin	0.0002341056	1366
bin	0.00023496	1356
bin	0.0002358144	1372
bin	0.0002366688	1389
bin	0.0002375232	1482
bin	0.0002383776	1520
bin	0.000239232	1595
bin	0.0002400864	1539
bin	0.0002409408	1561
bin	0.0002417952	1550
bin	0.0002426496	1590
bin	0.000243504	1567
bin	0.0002443584	1589
bin	0.0002452128	1716
bin	0.0002460672	1765
bin	0.0002469216	1613
bin	0.000247776	1546
bin	0.0002486304	1419
bin	0.0002494848	1354
bin	0.0002503392	1350
bin	0.0002511936	1181
bin	0.000252048	1097
bin	0.0002529024	977
bin	0.0002537568	960
bin	0.0002546112	828
bin	0.0002554656	821
bin	0.00025632	763
bin	0.0002571744	651
bin	0.0002580288	631
bin	0.0002588832	555
bin	0.0002597376	522
bin	0.000260592	491
bin	0.0002614464	493
bin	0.0002623008	434
bin	0.0002631552	409
bin	0.0002640096	409
bin	0.000264864	376
bin	0.0002657184	362
bin	0.0002665728	384
bin	0.0002674272	352
bin	0.0002682816	356
bin	0.000269136	388
bin	0.0002699904	369
bin	0.0002708448	351
bin	0.0002716992	334
bin	0.0002725536	351
bin	0.000273408	331
bin	0.0002742624	365
bin	0.0002751168	320
bin	0.0002759712	338
bin	0.0002768256	356
bin	0.00027768	342
bin	0.0002785344	367
bin	0.0002793888	378
bin	0.0002802432	390
bin	0.0002810976	377
bin	0.000281952	402
bin	0.0002828064	363
bin	0.0002836608	365
bin	0.0002845152	379
bin	0.0002853696	335
bin	0.000286224	357
bin	0.0002870784	369
bin	0.0002879328	356
bin	0.0002887872	377
bin	0.0002896416	395
bin	0.000290496	395
bin	0.0002913504	368
bin	0.0002922048	358
bin	0.0002930592	357
bin	0.0002939136	331
bin	0.000294768	350
bin	0.0002956224	365
bin	0.0002964768	371
bin	0.0002973312	363
bin	0.0002981856	372
bin	0.00029904	358
bin	0.0002998944	329
bin	0.0003007488	372
bin	0.0003016032	338
bin	0.0003024576	321
bin	0.000303312	345
bin	0.0003041664	360
bin	0.0003050208	353
bin	0.0003058752	346
bin	0.0003067296	328
bin	0.000307584	305
bin	0.0003084384	317
bin	0.0003092928	276
bin	0.0003101472	309
bin	0.0003110016	337
bin	0.000311856	328
bin	0.0003127104	288
bin	0.0003135648	327
bin	0.0003144192	324
bin	0.0003152736	324
bin	0.000316128	333
bin	0.0003169824	319
bin	0.0003178368	352
bin	0.0003186912	356
bin	0.0003195456	330
bin	0.0003204	328
bin	0.0003212544	339
bin	0.0003221088	372
bin	0.0003229632	363
bin	0.0003238176	387
bin	0.000324672	365
bin	0.0003255264	342
bin	0.0003263808	379
bin	0.0003272352	413
bin	0.0003280896	373
bin	0.000328944	420
bin	0.0003297984	406
bin	0.0003306528	391
bin	0.0003315072	402
bin	0.0003323616	404
bin	0.000333216	425
bin	0.0003340704	403
bin	0.0003349248	406
bin	0.0003357792	398
bin	0.0003366336	394
bin	0.000337488	397
bin	0.0003383424	434
bin	0.0003391968	445
bin	0.0003400512	430
bin	0.0003409056	444
bin	0.00034176	465
bin	0.0003426144	464
bin	0.0003434688	477
bin	0.0003443232	458
bin	0.0003451776	465
bin	0.000346032	463
bin	0.0003468864	432
bin	0.0003477408	488
bin	0.0003485952	483
bin	0.0003494496	486
bin	0.000350304	481
bin	0.0003511584	480
bin	0.0003520128	522
bin	0.0003528672	497
bin	0.0003537216	532
bin	0.000354576	547
bin	0.0003554304	553
bin	0.0003562848	577
bin	0.0003571392	625
bin	0.0003579936	611
bin	0.000358848	614
bin	0.0003597024	623
bin	0.0003605568	612
bin	0.0003614112	640
bin	0.0003622656	698
bin	0.00036312	736
bin	0.0003639744	768
bin	0.0003648288	771
bin	0.0003656832	826
bin	0.0003665376	819
bin	0.000367392	887
bin	0.0003682464	876
bin	0.0003691008	795
bin	0.0003699552	753
bin	0.0003708096	744
bin	0.000371664	715
bin	0.0003725184	703
bin	0.0003733728	681
bin	0.0003742272	619
bin	0.0003750816	593
bin	0.000375936	557
bin	0.0003767904	464
bin	0.0003776448	459
bin	0.0003784992	411
bin	0.0003793536	355
bin	0.000380208	340
bin	0.0003810624	336
bin	0.0003819168	308
bin	0.0003827712	276
bin	0.0003836256	310
bin	0.00038448	277
bin	0.0003853344	247
bin	0.0003861888	258
bin	0.0003870432	241
bin	0.0003878976	229
bin	0.000388752	244
bin	0.0003896064	239
bin	0.0003904608	234
bin	0.0003913152	244
bin	0.0003921696	202
bin	0.000393024	213
bin	0.0003938784	217
bin	0.0003947328	219
bin	0.0003955872	209
bin	0.0003964416	207
bin	0.000397296	199
bin	0.0003981504	202
bin	0.0003990048	196
bin	0.0003998592	209
bin	0.0004007136	177
bin	0.000401568	192
bin	0.0004024224	217
bin	0.0004032768	225
bin	0.0004041312	209
bin	0.0004049856	200
bin	0.00040584	214
bin	0.0004066944	185
bin	0.0004075488	226
bin	0.0004084032	237
bin	0.0004092576	233
bin	0.000410112	206
bin	0.0004109664	229
bin	0.0004118208	212
bin	0.0004126752	226
bin	0.0004135296	224
bin	0.000414384	227
bin	0.0004152384	231
bin	0.0004160928	214
bin	0.0004169472	198
bin	0.0004178016	234
bin	0.000418656	210
bin	0.0004195104	222
bin	0.0004203648	206
bin	0.0004212192	238
bin	0.0004220736	216
bin	0.000422928	218
bin	0.0004237824	186
bin	0.0004246368	191
bin	0.0004254912	201
bin	0.0004263456	212
bin	0.0004272	680593
