version 2
run Bitcomplement-39-20120709-21:26:35-24928
attr alg 3
attr buf 8
attr configname Bitcomplement
attr datetime 20120709-21:26:35
attr delta 0.2
attr experiment Bitcomplement
attr ext false
attr inifile altro.ini
attr iterationvars "$buf=8, $ext=false, $ofedge=2, $delta=0.2, $alg=3"
attr iterationvars2 "$buf=8, $ext=false, $ofedge=2, $delta=0.2, $alg=3, $repetition=0"
attr measurement "$buf=8, $ext=false, $ofedge=2, $delta=0.2, $alg=3"
attr network Torus3d_bub
attr ofedge 2
attr processid 24928
attr repetition 0
attr replication #0
attr resultdir altro-results
attr runnumber 39
attr seedset 39

scalar . 	alg 	3
scalar . 	buf 	8
scalar . 	delta 	0.2
scalar . 	ofedge 	2
scalar Torus3d_bub.timer 	#endTime 	0.003945466995774
scalar Torus3d_bub.timer 	#totalHops 	91790932
scalar Torus3d_bub.timer 	#totalPacks 	6291456
scalar Torus3d_bub.timer 	#totalDerouted 	2482348
scalar Torus3d_bub.timer 	#totalOutFlanked 	1111196
scalar Torus3d_bub.timer 	#totalCQRed 	1371152
scalar Torus3d_bub.timer 	#LB 	0.000786432
scalar Torus3d_bub.timer 	#ratio 	0.19932545395573
statistic Torus3d_bub.timer 	"Hop Times"
field count 6291456
field mean 4.1234733327946e-06
field stddev 4.0646090304842e-06
field sum 25.942651040451
field sqrsum 0.00021091525079972
field min 4.16777777e-07
field max 0.000739020111111
bin	-INF	0
bin	0	0
bin	7.12e-08	0
bin	1.424e-07	0
bin	2.136e-07	0
bin	2.848e-07	0
bin	3.56e-07	19
bin	4.272e-07	1746
bin	4.984e-07	19831
bin	5.696e-07	39655
bin	6.408e-07	36908
bin	7.12e-07	42476
bin	7.832e-07	49941
bin	8.544e-07	61351
bin	9.256e-07	75381
bin	9.968e-07	85029
bin	1.068e-06	90295
bin	1.1392e-06	93428
bin	1.2104e-06	97504
bin	1.2816e-06	96138
bin	1.3528e-06	97794
bin	1.424e-06	97625
bin	1.4952e-06	97183
bin	1.5664e-06	94391
bin	1.6376e-06	92923
bin	1.7088e-06	90680
bin	1.78e-06	88890
bin	1.8512e-06	89003
bin	1.9224e-06	88264
bin	1.9936e-06	89575
bin	2.0648e-06	89767
bin	2.136e-06	89459
bin	2.2072e-06	90053
bin	2.2784e-06	89901
bin	2.3496e-06	87952
bin	2.4208e-06	87284
bin	2.492e-06	86110
bin	2.5632e-06	84041
bin	2.6344e-06	83286
bin	2.7056e-06	81811
bin	2.7768e-06	81525
bin	2.848e-06	80513
bin	2.9192e-06	78981
bin	2.9904e-06	78911
bin	3.0616e-06	78739
bin	3.1328e-06	77543
bin	3.204e-06	77306
bin	3.2752e-06	77183
bin	3.3464e-06	75859
bin	3.4176e-06	75116
bin	3.4888e-06	74237
bin	3.56e-06	73066
bin	3.6312e-06	70970
bin	3.7024e-06	69876
bin	3.7736e-06	68650
bin	3.8448e-06	66633
bin	3.916e-06	65491
bin	3.9872e-06	64181
bin	4.0584e-06	63036
bin	4.1296e-06	60830
bin	4.2008e-06	60148
bin	4.272e-06	58465
bin	4.3432e-06	57535
bin	4.4144e-06	55357
bin	4.4856e-06	53854
bin	4.5568e-06	52202
bin	4.628e-06	51356
bin	4.6992e-06	49940
bin	4.7704e-06	49198
bin	4.8416e-06	47763
bin	4.9128e-06	45955
bin	4.984e-06	45150
bin	5.0552e-06	44016
bin	5.1264e-06	42650
bin	5.1976e-06	41405
bin	5.2688e-06	40279
bin	5.34e-06	39001
bin	5.4112e-06	38059
bin	5.4824e-06	37159
bin	5.5536e-06	36091
bin	5.6248e-06	34767
bin	5.696e-06	33680
bin	5.7672e-06	33040
bin	5.8384e-06	31325
bin	5.9096e-06	30765
bin	5.9808e-06	29766
bin	6.052e-06	28964
bin	6.1232e-06	28276
bin	6.1944e-06	27472
bin	6.2656e-06	26771
bin	6.3368e-06	26154
bin	6.408e-06	25548
bin	6.4792e-06	24448
bin	6.5504e-06	23959
bin	6.6216e-06	23090
bin	6.6928e-06	22659
bin	6.764e-06	21872
bin	6.8352e-06	21422
bin	6.9064e-06	20663
bin	6.9776e-06	20219
bin	7.0488e-06	19139
bin	7.12e-06	19069
bin	7.1912e-06	18460
bin	7.2624e-06	18066
bin	7.3336e-06	17677
bin	7.4048e-06	17103
bin	7.476e-06	16603
bin	7.5472e-06	15958
bin	7.6184e-06	15909
bin	7.6896e-06	15157
bin	7.7608e-06	14872
bin	7.832e-06	14365
bin	7.9032e-06	14000
bin	7.9744e-06	13531
bin	8.0456e-06	13167
bin	8.1168e-06	12341
bin	8.188e-06	11860
bin	8.2592e-06	11814
bin	8.3304e-06	11126
bin	8.4016e-06	11036
bin	8.4728e-06	10344
bin	8.544e-06	10353
bin	8.6152e-06	9675
bin	8.6864e-06	9640
bin	8.7576e-06	9311
bin	8.8288e-06	9086
bin	8.9e-06	8780
bin	8.9712e-06	8391
bin	9.0424e-06	8623
bin	9.1136e-06	8233
bin	9.1848e-06	8229
bin	9.256e-06	7925
bin	9.3272e-06	7752
bin	9.3984e-06	7322
bin	9.4696e-06	7365
bin	9.5408e-06	6847
bin	9.612e-06	6575
bin	9.6832e-06	6160
bin	9.7544e-06	6213
bin	9.8256e-06	6238
bin	9.8968e-06	5879
bin	9.968e-06	5934
bin	1.00392e-05	5704
bin	1.01104e-05	5663
bin	1.01816e-05	5448
bin	1.02528e-05	5414
bin	1.0324e-05	5207
bin	1.03952e-05	5330
bin	1.04664e-05	5101
bin	1.05376e-05	4852
bin	1.06088e-05	4940
bin	1.068e-05	4699
bin	1.07512e-05	4664
bin	1.08224e-05	4395
bin	1.08936e-05	4309
bin	1.09648e-05	4246
bin	1.1036e-05	4011
bin	1.11072e-05	3955
bin	1.11784e-05	3793
bin	1.12496e-05	3619
bin	1.13208e-05	3438
bin	1.1392e-05	3190
bin	1.14632e-05	3039
bin	1.15344e-05	3027
bin	1.16056e-05	2885
bin	1.16768e-05	2755
bin	1.1748e-05	2773
bin	1.18192e-05	2610
bin	1.18904e-05	2608
bin	1.19616e-05	2494
bin	1.20328e-05	2493
bin	1.2104e-05	2325
bin	1.21752e-05	2395
bin	1.22464e-05	2421
bin	1.23176e-05	2483
bin	1.23888e-05	2462
bin	1.246e-05	2525
bin	1.25312e-05	2428
bin	1.26024e-05	2471
bin	1.26736e-05	2321
bin	1.27448e-05	2461
bin	1.2816e-05	2435
bin	1.28872e-05	2356
bin	1.29584e-05	2376
bin	1.30296e-05	2428
bin	1.31008e-05	2440
bin	1.3172e-05	2385
bin	1.32432e-05	2443
bin	1.33144e-05	2336
bin	1.33856e-05	2334
bin	1.34568e-05	2203
bin	1.3528e-05	2246
bin	1.35992e-05	2111
bin	1.36704e-05	1988
bin	1.37416e-05	2013
bin	1.38128e-05	1854
bin	1.3884e-05	1803
bin	1.39552e-05	1655
bin	1.40264e-05	1660
bin	1.40976e-05	1498
bin	1.41688e-05	1386
bin	1.424e-05	1325
bin	1.43112e-05	1227
bin	1.43824e-05	1135
bin	1.44536e-05	1186
bin	1.45248e-05	1227
bin	1.4596e-05	1097
bin	1.46672e-05	1040
bin	1.47384e-05	986
bin	1.48096e-05	952
bin	1.48808e-05	917
bin	1.4952e-05	905
bin	1.50232e-05	891
bin	1.50944e-05	885
bin	1.51656e-05	823
bin	1.52368e-05	858
bin	1.5308e-05	811
bin	1.53792e-05	853
bin	1.54504e-05	779
bin	1.55216e-05	834
bin	1.55928e-05	806
bin	1.5664e-05	786
bin	1.57352e-05	815
bin	1.58064e-05	823
bin	1.58776e-05	860
bin	1.59488e-05	719
bin	1.602e-05	783
bin	1.60912e-05	870
bin	1.61624e-05	860
bin	1.62336e-05	829
bin	1.63048e-05	829
bin	1.6376e-05	858
bin	1.64472e-05	902
bin	1.65184e-05	945
bin	1.65896e-05	879
bin	1.66608e-05	949
bin	1.6732e-05	827
bin	1.68032e-05	1003
bin	1.68744e-05	978
bin	1.69456e-05	923
bin	1.70168e-05	923
bin	1.7088e-05	932
bin	1.71592e-05	919
bin	1.72304e-05	932
bin	1.73016e-05	965
bin	1.73728e-05	909
bin	1.7444e-05	985
bin	1.75152e-05	799
bin	1.75864e-05	897
bin	1.76576e-05	932
bin	1.77288e-05	833
bin	1.78e-05	811
bin	1.78712e-05	858
bin	1.79424e-05	749
bin	1.80136e-05	781
bin	1.80848e-05	801
bin	1.8156e-05	750
bin	1.82272e-05	831
bin	1.82984e-05	618
bin	1.83696e-05	722
bin	1.84408e-05	733
bin	1.8512e-05	599
bin	1.85832e-05	616
bin	1.86544e-05	728
bin	1.87256e-05	622
bin	1.87968e-05	655
bin	1.8868e-05	736
bin	1.89392e-05	633
bin	1.90104e-05	754
bin	1.90816e-05	587
bin	1.91528e-05	615
bin	1.9224e-05	721
bin	1.92952e-05	619
bin	1.93664e-05	628
bin	1.94376e-05	667
bin	1.95088e-05	593
bin	1.958e-05	569
bin	1.96512e-05	693
bin	1.97224e-05	586
bin	1.97936e-05	695
bin	1.98648e-05	533
bin	1.9936e-05	533
bin	2.00072e-05	643
bin	2.00784e-05	527
bin	2.01496e-05	525
bin	2.02208e-05	549
bin	2.0292e-05	489
bin	2.03632e-05	458
bin	2.04344e-05	495
bin	2.05056e-05	466
bin	2.05768e-05	458
bin	2.0648e-05	394
bin	2.07192e-05	384
bin	2.07904e-05	419
bin	2.08616e-05	366
bin	2.09328e-05	336
bin	2.1004e-05	367
bin	2.10752e-05	313
bin	2.11464e-05	289
bin	2.12176e-05	292
bin	2.12888e-05	272
bin	2.136e-05	291
bin	2.14312e-05	250
bin	2.15024e-05	238
bin	2.15736e-05	256
bin	2.16448e-05	245
bin	2.1716e-05	224
bin	2.17872e-05	227
bin	2.18584e-05	214
bin	2.19296e-05	196
bin	2.20008e-05	190
bin	2.2072e-05	207
bin	2.21432e-05	195
bin	2.22144e-05	167
bin	2.22856e-05	172
bin	2.23568e-05	171
bin	2.2428e-05	163
bin	2.24992e-05	180
bin	2.25704e-05	172
bin	2.26416e-05	155
bin	2.27128e-05	173
bin	2.2784e-05	175
bin	2.28552e-05	155
bin	2.29264e-05	168
bin	2.29976e-05	150
bin	2.30688e-05	165
bin	2.314e-05	177
bin	2.32112e-05	185
bin	2.32824e-05	184
bin	2.33536e-05	188
bin	2.34248e-05	171
bin	2.3496e-05	194
bin	2.35672e-05	180
bin	2.36384e-05	168
bin	2.37096e-05	187
bin	2.37808e-05	210
bin	2.3852e-05	205
bin	2.39232e-05	228
bin	2.39944e-05	235
bin	2.40656e-05	220
bin	2.41368e-05	215
bin	2.4208e-05	239
bin	2.42792e-05	240
bin	2.43504e-05	234
bin	2.44216e-05	234
bin	2.44928e-05	210
bin	2.4564e-05	228
bin	2.46352e-05	187
bin	2.47064e-05	209
bin	2.47776e-05	209
bin	2.48488e-05	197
bin	2.492e-05	165
bin	2.49912e-05	169
bin	2.50624e-05	167
bin	2.51336e-05	168
bin	2.52048e-05	148
bin	2.5276e-05	105
bin	2.53472e-05	99
bin	2.54184e-05	97
bin	2.54896e-05	104
bin	2.55608e-05	99
bin	2.5632e-05	65
bin	2.57032e-05	62
bin	2.57744e-05	59
bin	2.58456e-05	58
bin	2.59168e-05	77
bin	2.5988e-05	62
bin	2.60592e-05	61
bin	2.61304e-05	58
bin	2.62016e-05	42
bin	2.62728e-05	58
bin	2.6344e-05	56
bin	2.64152e-05	52
bin	2.64864e-05	60
bin	2.65576e-05	55
bin	2.66288e-05	61
bin	2.67e-05	70
bin	2.67712e-05	49
bin	2.68424e-05	61
bin	2.69136e-05	58
bin	2.69848e-05	64
bin	2.7056e-05	58
bin	2.71272e-05	62
bin	2.71984e-05	78
bin	2.72696e-05	88
bin	2.73408e-05	68
bin	2.7412e-05	62
bin	2.74832e-05	63
bin	2.75544e-05	64
bin	2.76256e-05	69
bin	2.76968e-05	62
bin	2.7768e-05	41
bin	2.78392e-05	47
bin	2.79104e-05	35
bin	2.79816e-05	44
bin	2.80528e-05	42
bin	2.8124e-05	40
bin	2.81952e-05	52
bin	2.82664e-05	42
bin	2.83376e-05	47
bin	2.84088e-05	53
bin	2.848e-05	45
bin	2.85512e-05	25
bin	2.86224e-05	41
bin	2.86936e-05	34
bin	2.87648e-05	33
bin	2.8836e-05	44
bin	2.89072e-05	12
bin	2.89784e-05	61
bin	2.90496e-05	43
bin	2.91208e-05	45
bin	2.9192e-05	55
bin	2.92632e-05	50
bin	2.93344e-05	21
bin	2.94056e-05	51
bin	2.94768e-05	60
bin	2.9548e-05	52
bin	2.96192e-05	52
bin	2.96904e-05	30
bin	2.97616e-05	70
bin	2.98328e-05	72
bin	2.9904e-05	82
bin	2.99752e-05	71
bin	3.00464e-05	85
bin	3.01176e-05	33
bin	3.01888e-05	91
bin	3.026e-05	77
bin	3.03312e-05	110
bin	3.04024e-05	87
bin	3.04736e-05	37
bin	3.05448e-05	100
bin	3.0616e-05	118
bin	3.06872e-05	117
bin	3.07584e-05	81
bin	3.08296e-05	101
bin	3.09008e-05	47
bin	3.0972e-05	126
bin	3.10432e-05	116
bin	3.11144e-05	104
bin	3.11856e-05	126
bin	3.12568e-05	45
bin	3.1328e-05	134
bin	3.13992e-05	141
bin	3.14704e-05	145
bin	3.15416e-05	119
bin	3.16128e-05	144
bin	3.1684e-05	75
bin	3.17552e-05	128
bin	3.18264e-05	144
bin	3.18976e-05	148
bin	3.19688e-05	110
bin	3.204e-05	81
bin	3.21112e-05	160
bin	3.21824e-05	143
bin	3.22536e-05	161
bin	3.23248e-05	146
bin	3.2396e-05	173
bin	3.24672e-05	82
bin	3.25384e-05	167
bin	3.26096e-05	179
bin	3.26808e-05	168
bin	3.2752e-05	168
bin	3.28232e-05	111
bin	3.28944e-05	189
bin	3.29656e-05	179
bin	3.30368e-05	190
bin	3.3108e-05	162
bin	3.31792e-05	200
bin	3.32504e-05	131
bin	3.33216e-05	191
bin	3.33928e-05	195
bin	3.3464e-05	188
bin	3.35352e-05	169
bin	3.36064e-05	151
bin	3.36776e-05	208
bin	3.37488e-05	198
bin	3.382e-05	220
bin	3.38912e-05	197
bin	3.39624e-05	194
bin	3.40336e-05	134
bin	3.41048e-05	206
bin	3.4176e-05	200
bin	3.42472e-05	196
bin	3.43184e-05	178
bin	3.43896e-05	127
bin	3.44608e-05	198
bin	3.4532e-05	182
bin	3.46032e-05	193
bin	3.46744e-05	168
bin	3.47456e-05	154
bin	3.48168e-05	129
bin	3.4888e-05	149
bin	3.49592e-05	159
bin	3.50304e-05	156
bin	3.51016e-05	153
bin	3.51728e-05	116
bin	3.5244e-05	157
bin	3.53152e-05	162
bin	3.53864e-05	144
bin	3.54576e-05	121
bin	3.55288e-05	116
bin	3.56e-05	6766
statistic Torus3d_bub.timer 	"Life Times"
field count 6291456
field mean 5.2812830786761e-05
field stddev 2.9221765597985e-05
field sum 332.26960113036
field sqrsum 0.022920444528972
field min 1.250333333e-06
field max 0.002333246996539
bin	-INF	0
bin	0	0
bin	8.544e-07	456
bin	1.7088e-06	2767
bin	2.5632e-06	5575
bin	3.4176e-06	11586
bin	4.272e-06	16168
bin	5.1264e-06	19298
bin	5.9808e-06	20578
bin	6.8352e-06	23621
bin	7.6896e-06	25502
bin	8.544e-06	30611
bin	9.3984e-06	34688
bin	1.02528e-05	40547
bin	1.11072e-05	45074
bin	1.19616e-05	48009
bin	1.2816e-05	48368
bin	1.36704e-05	50293
bin	1.45248e-05	50789
bin	1.53792e-05	51804
bin	1.62336e-05	50956
bin	1.7088e-05	50732
bin	1.79424e-05	51673
bin	1.87968e-05	49683
bin	1.96512e-05	49597
bin	2.05056e-05	50438
bin	2.136e-05	52539
bin	2.22144e-05	53064
bin	2.30688e-05	54770
bin	2.39232e-05	55396
bin	2.47776e-05	57535
bin	2.5632e-05	57781
bin	2.64864e-05	59282
bin	2.73408e-05	60820
bin	2.81952e-05	61391
bin	2.90496e-05	62439
bin	2.9904e-05	63748
bin	3.07584e-05	64527
bin	3.16128e-05	66549
bin	3.24672e-05	67028
bin	3.33216e-05	68005
bin	3.4176e-05	69569
bin	3.50304e-05	69872
bin	3.58848e-05	71408
bin	3.67392e-05	73218
bin	3.75936e-05	72173
bin	3.8448e-05	71870
bin	3.93024e-05	72878
bin	4.01568e-05	73091
bin	4.10112e-05	73243
bin	4.18656e-05	73281
bin	4.272e-05	72662
bin	4.35744e-05	73177
bin	4.44288e-05	72918
bin	4.52832e-05	74056
bin	4.61376e-05	73670
bin	4.6992e-05	72911
bin	4.78464e-05	72932
bin	4.87008e-05	73661
bin	4.95552e-05	73590
bin	5.04096e-05	73734
bin	5.1264e-05	73692
bin	5.21184e-05	72872
bin	5.29728e-05	72283
bin	5.38272e-05	72390
bin	5.46816e-05	71672
bin	5.5536e-05	71887
bin	5.63904e-05	70836
bin	5.72448e-05	69827
bin	5.80992e-05	69085
bin	5.89536e-05	68240
bin	5.9808e-05	69009
bin	6.06624e-05	67899
bin	6.15168e-05	67130
bin	6.23712e-05	67153
bin	6.32256e-05	66374
bin	6.408e-05	65714
bin	6.49344e-05	64946
bin	6.57888e-05	64238
bin	6.66432e-05	62840
bin	6.74976e-05	61583
bin	6.8352e-05	60720
bin	6.92064e-05	59692
bin	7.00608e-05	58324
bin	7.09152e-05	57124
bin	7.17696e-05	56240
bin	7.2624e-05	54863
bin	7.34784e-05	53677
bin	7.43328e-05	52693
bin	7.51872e-05	51469
bin	7.60416e-05	49984
bin	7.6896e-05	48560
bin	7.77504e-05	47639
bin	7.86048e-05	46442
bin	7.94592e-05	44886
bin	8.03136e-05	43978
bin	8.1168e-05	43455
bin	8.20224e-05	41988
bin	8.28768e-05	40411
bin	8.37312e-05	39158
bin	8.45856e-05	38005
bin	8.544e-05	36361
bin	8.62944e-05	34815
bin	8.71488e-05	34025
bin	8.80032e-05	32722
bin	8.88576e-05	31565
bin	8.9712e-05	30301
bin	9.05664e-05	28831
bin	9.14208e-05	27956
bin	9.22752e-05	26702
bin	9.31296e-05	25674
bin	9.3984e-05	24521
bin	9.48384e-05	23194
bin	9.56928e-05	21906
bin	9.65472e-05	20946
bin	9.74016e-05	19414
bin	9.8256e-05	18593
bin	9.91104e-05	17498
bin	9.99648e-05	16326
bin	0.0001008192	15648
bin	0.0001016736	14909
bin	0.000102528	13934
bin	0.0001033824	13000
bin	0.0001042368	12173
bin	0.0001050912	11494
bin	0.0001059456	10606
bin	0.0001068	10116
bin	0.0001076544	10008
bin	0.0001085088	9470
bin	0.0001093632	9416
bin	0.0001102176	8945
bin	0.000111072	8573
bin	0.0001119264	8212
bin	0.0001127808	7831
bin	0.0001136352	7648
bin	0.0001144896	7725
bin	0.000115344	7619
bin	0.0001161984	7400
bin	0.0001170528	7148
bin	0.0001179072	6892
bin	0.0001187616	6676
bin	0.000119616	6345
bin	0.0001204704	6189
bin	0.0001213248	5669
bin	0.0001221792	5220
bin	0.0001230336	4618
bin	0.000123888	3964
bin	0.0001247424	3047
bin	0.0001255968	2363
bin	0.0001264512	1891
bin	0.0001273056	1446
bin	0.00012816	948
bin	0.0001290144	717
bin	0.0001298688	528
bin	0.0001307232	410
bin	0.0001315776	297
bin	0.000132432	227
bin	0.0001332864	181
bin	0.0001341408	170
bin	0.0001349952	161
bin	0.0001358496	160
bin	0.000136704	117
bin	0.0001375584	104
bin	0.0001384128	63
bin	0.0001392672	58
bin	0.0001401216	42
bin	0.000140976	27
bin	0.0001418304	17
bin	0.0001426848	23
bin	0.0001435392	13
bin	0.0001443936	18
bin	0.000145248	11
bin	0.0001461024	13
bin	0.0001469568	15
bin	0.0001478112	16
bin	0.0001486656	23
bin	0.00014952	11
bin	0.0001503744	20
bin	0.0001512288	12
bin	0.0001520832	13
bin	0.0001529376	9
bin	0.000153792	9
bin	0.0001546464	6
bin	0.0001555008	12
bin	0.0001563552	8
bin	0.0001572096	13
bin	0.000158064	8
bin	0.0001589184	8
bin	0.0001597728	7
bin	0.0001606272	6
bin	0.0001614816	10
bin	0.000162336	10
bin	0.0001631904	10
bin	0.0001640448	10
bin	0.0001648992	17
bin	0.0001657536	13
bin	0.000166608	10
bin	0.0001674624	16
bin	0.0001683168	13
bin	0.0001691712	18
bin	0.0001700256	17
bin	0.00017088	14
bin	0.0001717344	18
bin	0.0001725888	9
bin	0.0001734432	14
bin	0.0001742976	11
bin	0.000175152	28
bin	0.0001760064	22
bin	0.0001768608	18
bin	0.0001777152	24
bin	0.0001785696	26
bin	0.000179424	29
bin	0.0001802784	27
bin	0.0001811328	34
bin	0.0001819872	28
bin	0.0001828416	22
bin	0.000183696	30
bin	0.0001845504	34
bin	0.0001854048	32
bin	0.0001862592	43
bin	0.0001871136	37
bin	0.000187968	37
bin	0.0001888224	51
bin	0.0001896768	44
bin	0.0001905312	44
bin	0.0001913856	40
bin	0.00019224	38
bin	0.0001930944	52
bin	0.0001939488	47
bin	0.0001948032	44
bin	0.0001956576	50
bin	0.000196512	47
bin	0.0001973664	39
bin	0.0001982208	63
bin	0.0001990752	53
bin	0.0001999296	46
bin	0.000200784	48
bin	0.0002016384	64
bin	0.0002024928	57
bin	0.0002033472	57
bin	0.0002042016	46
bin	0.000205056	44
bin	0.0002059104	67
bin	0.0002067648	54
bin	0.0002076192	55
bin	0.0002084736	66
bin	0.000209328	64
bin	0.0002101824	50
bin	0.0002110368	73
bin	0.0002118912	63
bin	0.0002127456	63
bin	0.0002136	80
bin	0.0002144544	70
bin	0.0002153088	74
bin	0.0002161632	84
bin	0.0002170176	67
bin	0.000217872	78
bin	0.0002187264	87
bin	0.0002195808	84
bin	0.0002204352	97
bin	0.0002212896	74
bin	0.000222144	78
bin	0.0002229984	85
bin	0.0002238528	75
bin	0.0002247072	101
bin	0.0002255616	81
bin	0.000226416	89
bin	0.0002272704	95
bin	0.0002281248	114
bin	0.0002289792	106
bin	0.0002298336	123
bin	0.000230688	124
bin	0.0002315424	132
bin	0.0002323968	127
bin	0.0002332512	138
bin	0.0002341056	145
bin	0.00023496	172
bin	0.0002358144	175
bin	0.0002366688	181
bin	0.0002375232	205
bin	0.0002383776	218
bin	0.000239232	249
bin	0.0002400864	238
bin	0.0002409408	243
bin	0.0002417952	264
bin	0.0002426496	288
bin	0.000243504	273
bin	0.0002443584	314
bin	0.0002452128	367
bin	0.0002460672	377
bin	0.0002469216	340
bin	0.000247776	284
bin	0.0002486304	232
bin	0.0002494848	171
bin	0.0002503392	123
bin	0.0002511936	85
bin	0.000252048	76
bin	0.0002529024	50
bin	0.0002537568	42
bin	0.0002546112	30
bin	0.0002554656	38
bin	0.00025632	17
bin	0.0002571744	17
bin	0.0002580288	8
bin	0.0002588832	9
bin	0.0002597376	15
bin	0.000260592	19
bin	0.0002614464	10
bin	0.0002623008	3
bin	0.0002631552	2
bin	0.0002640096	5
bin	0.000264864	0
bin	0.0002657184	3
bin	0.0002665728	2
bin	0.0002674272	1
bin	0.0002682816	1
bin	0.000269136	1
bin	0.0002699904	2
bin	0.0002708448	2
bin	0.0002716992	2
bin	0.0002725536	6
bin	0.000273408	6
bin	0.0002742624	3
bin	0.0002751168	1
bin	0.0002759712	1
bin	0.0002768256	2
bin	0.00027768	2
bin	0.0002785344	0
bin	0.0002793888	1
bin	0.0002802432	1
bin	0.0002810976	1
bin	0.000281952	1
bin	0.0002828064	1
bin	0.0002836608	0
bin	0.0002845152	0
bin	0.0002853696	3
bin	0.000286224	0
bin	0.0002870784	0
bin	0.0002879328	0
bin	0.0002887872	1
bin	0.0002896416	2
bin	0.000290496	1
bin	0.0002913504	0
bin	0.0002922048	1
bin	0.0002930592	0
bin	0.0002939136	2
bin	0.000294768	1
bin	0.0002956224	1
bin	0.0002964768	2
bin	0.0002973312	2
bin	0.0002981856	4
bin	0.00029904	3
bin	0.0002998944	5
bin	0.0003007488	4
bin	0.0003016032	4
bin	0.0003024576	2
bin	0.000303312	2
bin	0.0003041664	3
bin	0.0003050208	1
bin	0.0003058752	1
bin	0.0003067296	5
bin	0.000307584	3
bin	0.0003084384	2
bin	0.0003092928	4
bin	0.0003101472	3
bin	0.0003110016	3
bin	0.000311856	3
bin	0.0003127104	2
bin	0.0003135648	3
bin	0.0003144192	3
bin	0.0003152736	4
bin	0.000316128	5
bin	0.0003169824	6
bin	0.0003178368	5
bin	0.0003186912	3
bin	0.0003195456	8
bin	0.0003204	6
bin	0.0003212544	3
bin	0.0003221088	3
bin	0.0003229632	4
bin	0.0003238176	8
bin	0.000324672	7
bin	0.0003255264	10
bin	0.0003263808	6
bin	0.0003272352	12
bin	0.0003280896	7
bin	0.000328944	9
bin	0.0003297984	7
bin	0.0003306528	5
bin	0.0003315072	9
bin	0.0003323616	8
bin	0.000333216	11
bin	0.0003340704	7
bin	0.0003349248	7
bin	0.0003357792	6
bin	0.0003366336	3
bin	0.000337488	10
bin	0.0003383424	11
bin	0.0003391968	8
bin	0.0003400512	9
bin	0.0003409056	8
bin	0.00034176	13
bin	0.0003426144	4
bin	0.0003434688	6
bin	0.0003443232	11
bin	0.0003451776	12
bin	0.000346032	12
bin	0.0003468864	15
bin	0.0003477408	13
bin	0.0003485952	16
bin	0.0003494496	11
bin	0.000350304	7
bin	0.0003511584	9
bin	0.0003520128	11
bin	0.0003528672	20
bin	0.0003537216	22
bin	0.000354576	14
bin	0.0003554304	16
bin	0.0003562848	18
bin	0.0003571392	16
bin	0.0003579936	29
bin	0.000358848	37
bin	0.0003597024	42
bin	0.0003605568	32
bin	0.0003614112	35
bin	0.0003622656	41
bin	0.00036312	51
bin	0.0003639744	55
bin	0.0003648288	65
bin	0.0003656832	87
bin	0.0003665376	71
bin	0.000367392	80
bin	0.0003682464	87
bin	0.0003691008	109
bin	0.0003699552	92
bin	0.0003708096	75
bin	0.000371664	57
bin	0.0003725184	51
bin	0.0003733728	35
bin	0.0003742272	29
bin	0.0003750816	12
bin	0.000375936	11
bin	0.0003767904	12
bin	0.0003776448	12
bin	0.0003784992	13
bin	0.0003793536	8
bin	0.000380208	6
bin	0.0003810624	5
bin	0.0003819168	2
bin	0.0003827712	2
bin	0.0003836256	2
bin	0.00038448	2
bin	0.0003853344	1
bin	0.0003861888	2
bin	0.0003870432	0
bin	0.0003878976	0
bin	0.000388752	1
bin	0.0003896064	0
bin	0.0003904608	0
bin	0.0003913152	1
bin	0.0003921696	0
bin	0.000393024	0
bin	0.0003938784	1
bin	0.0003947328	0
bin	0.0003955872	0
bin	0.0003964416	1
bin	0.000397296	0
bin	0.0003981504	1
bin	0.0003990048	0
bin	0.0003998592	1
bin	0.0004007136	0
bin	0.000401568	0
bin	0.0004024224	0
bin	0.0004032768	0
bin	0.0004041312	1
bin	0.0004049856	0
bin	0.00040584	0
bin	0.0004066944	0
bin	0.0004075488	0
bin	0.0004084032	1
bin	0.0004092576	1
bin	0.000410112	0
bin	0.0004109664	0
bin	0.0004118208	0
bin	0.0004126752	1
bin	0.0004135296	1
bin	0.000414384	2
bin	0.0004152384	1
bin	0.0004160928	1
bin	0.0004169472	0
bin	0.0004178016	0
bin	0.000418656	1
bin	0.0004195104	0
bin	0.0004203648	0
bin	0.0004212192	1
bin	0.0004220736	0
bin	0.000422928	0
bin	0.0004237824	1
bin	0.0004246368	1
bin	0.0004254912	0
bin	0.0004263456	0
bin	0.0004272	1227
