version 2
run Bitcomplement-20-20120709-19:55:04-24891
attr alg 0
attr buf 8
attr configname Bitcomplement
attr datetime 20120709-19:55:04
attr delta 0.6
attr experiment Bitcomplement
attr ext true
attr inifile altro.ini
attr iterationvars "$buf=8, $ext=true, $ofedge=2, $delta=0.6, $alg=0"
attr iterationvars2 "$buf=8, $ext=true, $ofedge=2, $delta=0.6, $alg=0, $repetition=0"
attr measurement "$buf=8, $ext=true, $ofedge=2, $delta=0.6, $alg=0"
attr network Torus3d_bub
attr ofedge 2
attr processid 24891
attr repetition 0
attr replication #0
attr resultdir altro-results
attr runnumber 20
attr seedset 20

scalar . 	alg 	0
scalar . 	buf 	8
scalar . 	delta 	0.6
scalar . 	ofedge 	2
scalar Torus3d_bub.timer 	#endTime 	0.004860177659075
scalar Torus3d_bub.timer 	#totalHops 	75497472
scalar Torus3d_bub.timer 	#totalPacks 	6291456
scalar Torus3d_bub.timer 	#totalDerouted 	0
scalar Torus3d_bub.timer 	#totalOutFlanked 	0
scalar Torus3d_bub.timer 	#totalCQRed 	0
scalar Torus3d_bub.timer 	#LB 	0.000786432
scalar Torus3d_bub.timer 	#ratio 	0.16181136887693
statistic Torus3d_bub.timer 	"Hop Times"
field count 6291456
field mean 0.0001386620419353
field stddev 0.00020529303695025
field sum 872.3861357061
field sqrsum 0.38612166736161
field min 4.22155547e-07
field max 0.001574056886485
bin	-INF	0
bin	0	0
bin	7.12e-08	0
bin	1.424e-07	0
bin	2.136e-07	0
bin	2.848e-07	0
bin	3.56e-07	8
bin	4.272e-07	1198
bin	4.984e-07	5170
bin	5.696e-07	13512
bin	6.408e-07	20944
bin	7.12e-07	31892
bin	7.832e-07	39688
bin	8.544e-07	47904
bin	9.256e-07	52452
bin	9.968e-07	53818
bin	1.068e-06	52418
bin	1.1392e-06	51900
bin	1.2104e-06	50282
bin	1.2816e-06	48302
bin	1.3528e-06	46534
bin	1.424e-06	46970
bin	1.4952e-06	48588
bin	1.5664e-06	49660
bin	1.6376e-06	50200
bin	1.7088e-06	49742
bin	1.78e-06	49308
bin	1.8512e-06	49676
bin	1.9224e-06	50972
bin	1.9936e-06	52132
bin	2.0648e-06	53516
bin	2.136e-06	54898
bin	2.2072e-06	55364
bin	2.2784e-06	55886
bin	2.3496e-06	55806
bin	2.4208e-06	54952
bin	2.492e-06	52542
bin	2.5632e-06	50876
bin	2.6344e-06	49056
bin	2.7056e-06	46166
bin	2.7768e-06	44424
bin	2.848e-06	41442
bin	2.9192e-06	39472
bin	2.9904e-06	36098
bin	3.0616e-06	33260
bin	3.1328e-06	30846
bin	3.204e-06	28812
bin	3.2752e-06	25376
bin	3.3464e-06	23614
bin	3.4176e-06	20834
bin	3.4888e-06	19588
bin	3.56e-06	18064
bin	3.6312e-06	16190
bin	3.7024e-06	14682
bin	3.7736e-06	13042
bin	3.8448e-06	11458
bin	3.916e-06	9506
bin	3.9872e-06	7624
bin	4.0584e-06	6752
bin	4.1296e-06	6224
bin	4.2008e-06	5796
bin	4.272e-06	5402
bin	4.3432e-06	5170
bin	4.4144e-06	4846
bin	4.4856e-06	4362
bin	4.5568e-06	4442
bin	4.628e-06	4248
bin	4.6992e-06	4330
bin	4.7704e-06	4206
bin	4.8416e-06	3978
bin	4.9128e-06	3844
bin	4.984e-06	3838
bin	5.0552e-06	3550
bin	5.1264e-06	3668
bin	5.1976e-06	3642
bin	5.2688e-06	3720
bin	5.34e-06	3606
bin	5.4112e-06	3676
bin	5.4824e-06	3656
bin	5.5536e-06	3884
bin	5.6248e-06	3694
bin	5.696e-06	3746
bin	5.7672e-06	3582
bin	5.8384e-06	3848
bin	5.9096e-06	3828
bin	5.9808e-06	4306
bin	6.052e-06	4348
bin	6.1232e-06	4822
bin	6.1944e-06	5044
bin	6.2656e-06	5250
bin	6.3368e-06	5288
bin	6.408e-06	5336
bin	6.4792e-06	5636
bin	6.5504e-06	5446
bin	6.6216e-06	5572
bin	6.6928e-06	5490
bin	6.764e-06	5520
bin	6.8352e-06	5234
bin	6.9064e-06	4834
bin	6.9776e-06	4424
bin	7.0488e-06	3860
bin	7.12e-06	3366
bin	7.1912e-06	2714
bin	7.2624e-06	2532
bin	7.3336e-06	2096
bin	7.4048e-06	2036
bin	7.476e-06	2034
bin	7.5472e-06	1928
bin	7.6184e-06	1890
bin	7.6896e-06	1812
bin	7.7608e-06	1800
bin	7.832e-06	1684
bin	7.9032e-06	1968
bin	7.9744e-06	1894
bin	8.0456e-06	1960
bin	8.1168e-06	1948
bin	8.188e-06	1946
bin	8.2592e-06	1946
bin	8.3304e-06	2074
bin	8.4016e-06	1960
bin	8.4728e-06	2154
bin	8.544e-06	2096
bin	8.6152e-06	2168
bin	8.6864e-06	2176
bin	8.7576e-06	2148
bin	8.8288e-06	2208
bin	8.9e-06	2172
bin	8.9712e-06	2334
bin	9.0424e-06	2376
bin	9.1136e-06	2368
bin	9.1848e-06	2470
bin	9.256e-06	2680
bin	9.3272e-06	2826
bin	9.3984e-06	2990
bin	9.4696e-06	3006
bin	9.5408e-06	3378
bin	9.612e-06	3462
bin	9.6832e-06	3516
bin	9.7544e-06	3880
bin	9.8256e-06	3872
bin	9.8968e-06	4094
bin	9.968e-06	4036
bin	1.00392e-05	3802
bin	1.01104e-05	3618
bin	1.01816e-05	3332
bin	1.02528e-05	2716
bin	1.0324e-05	2190
bin	1.03952e-05	1938
bin	1.04664e-05	1746
bin	1.05376e-05	1562
bin	1.06088e-05	1496
bin	1.068e-05	1524
bin	1.07512e-05	1396
bin	1.08224e-05	1456
bin	1.08936e-05	1428
bin	1.09648e-05	1522
bin	1.1036e-05	1554
bin	1.11072e-05	1606
bin	1.11784e-05	1616
bin	1.12496e-05	1616
bin	1.13208e-05	1596
bin	1.1392e-05	1752
bin	1.14632e-05	1746
bin	1.15344e-05	1700
bin	1.16056e-05	1940
bin	1.16768e-05	1788
bin	1.1748e-05	1808
bin	1.18192e-05	1714
bin	1.18904e-05	1686
bin	1.19616e-05	1498
bin	1.20328e-05	1380
bin	1.2104e-05	1308
bin	1.21752e-05	1230
bin	1.22464e-05	1380
bin	1.23176e-05	1486
bin	1.23888e-05	1734
bin	1.246e-05	1976
bin	1.25312e-05	2334
bin	1.26024e-05	2398
bin	1.26736e-05	2768
bin	1.27448e-05	2826
bin	1.2816e-05	3044
bin	1.28872e-05	3264
bin	1.29584e-05	3428
bin	1.30296e-05	3452
bin	1.31008e-05	3290
bin	1.3172e-05	3218
bin	1.32432e-05	2712
bin	1.33144e-05	2594
bin	1.33856e-05	2092
bin	1.34568e-05	1872
bin	1.3528e-05	1512
bin	1.35992e-05	1358
bin	1.36704e-05	1310
bin	1.37416e-05	1332
bin	1.38128e-05	1274
bin	1.3884e-05	1264
bin	1.39552e-05	1434
bin	1.40264e-05	1388
bin	1.40976e-05	1428
bin	1.41688e-05	1494
bin	1.424e-05	1554
bin	1.43112e-05	1626
bin	1.43824e-05	1598
bin	1.44536e-05	1660
bin	1.45248e-05	1558
bin	1.4596e-05	1568
bin	1.46672e-05	1366
bin	1.47384e-05	1300
bin	1.48096e-05	1100
bin	1.48808e-05	1054
bin	1.4952e-05	944
bin	1.50232e-05	822
bin	1.50944e-05	840
bin	1.51656e-05	818
bin	1.52368e-05	830
bin	1.5308e-05	802
bin	1.53792e-05	892
bin	1.54504e-05	1046
bin	1.55216e-05	1352
bin	1.55928e-05	1498
bin	1.5664e-05	1726
bin	1.57352e-05	1844
bin	1.58064e-05	2272
bin	1.58776e-05	2336
bin	1.59488e-05	2604
bin	1.602e-05	2648
bin	1.60912e-05	2812
bin	1.61624e-05	2860
bin	1.62336e-05	2724
bin	1.63048e-05	2880
bin	1.6376e-05	2630
bin	1.64472e-05	2538
bin	1.65184e-05	2188
bin	1.65896e-05	1926
bin	1.66608e-05	1814
bin	1.6732e-05	1546
bin	1.68032e-05	1476
bin	1.68744e-05	1414
bin	1.69456e-05	1382
bin	1.70168e-05	1330
bin	1.7088e-05	1256
bin	1.71592e-05	1290
bin	1.72304e-05	1200
bin	1.73016e-05	1176
bin	1.73728e-05	1076
bin	1.7444e-05	912
bin	1.75152e-05	844
bin	1.75864e-05	754
bin	1.76576e-05	652
bin	1.77288e-05	684
bin	1.78e-05	642
bin	1.78712e-05	660
bin	1.79424e-05	604
bin	1.80136e-05	578
bin	1.80848e-05	578
bin	1.8156e-05	592
bin	1.82272e-05	614
bin	1.82984e-05	552
bin	1.83696e-05	642
bin	1.84408e-05	608
bin	1.8512e-05	742
bin	1.85832e-05	796
bin	1.86544e-05	988
bin	1.87256e-05	1076
bin	1.87968e-05	1430
bin	1.8868e-05	1430
bin	1.89392e-05	1696
bin	1.90104e-05	1778
bin	1.90816e-05	1980
bin	1.91528e-05	1980
bin	1.9224e-05	2226
bin	1.92952e-05	2238
bin	1.93664e-05	2290
bin	1.94376e-05	2132
bin	1.95088e-05	2212
bin	1.958e-05	2088
bin	1.96512e-05	1684
bin	1.97224e-05	1440
bin	1.97936e-05	1246
bin	1.98648e-05	1130
bin	1.9936e-05	1084
bin	2.00072e-05	1082
bin	2.00784e-05	1014
bin	2.01496e-05	914
bin	2.02208e-05	866
bin	2.0292e-05	772
bin	2.03632e-05	742
bin	2.04344e-05	682
bin	2.05056e-05	654
bin	2.05768e-05	652
bin	2.0648e-05	548
bin	2.07192e-05	624
bin	2.07904e-05	632
bin	2.08616e-05	630
bin	2.09328e-05	644
bin	2.1004e-05	646
bin	2.10752e-05	706
bin	2.11464e-05	678
bin	2.12176e-05	712
bin	2.12888e-05	650
bin	2.136e-05	698
bin	2.14312e-05	686
bin	2.15024e-05	740
bin	2.15736e-05	682
bin	2.16448e-05	690
bin	2.1716e-05	712
bin	2.17872e-05	732
bin	2.18584e-05	832
bin	2.19296e-05	1070
bin	2.20008e-05	1138
bin	2.2072e-05	1272
bin	2.21432e-05	1206
bin	2.22144e-05	1500
bin	2.22856e-05	1486
bin	2.23568e-05	1704
bin	2.2428e-05	1680
bin	2.24992e-05	1838
bin	2.25704e-05	1740
bin	2.26416e-05	1678
bin	2.27128e-05	1640
bin	2.2784e-05	1412
bin	2.28552e-05	1224
bin	2.29264e-05	1138
bin	2.29976e-05	1100
bin	2.30688e-05	994
bin	2.314e-05	940
bin	2.32112e-05	868
bin	2.32824e-05	872
bin	2.33536e-05	836
bin	2.34248e-05	794
bin	2.3496e-05	728
bin	2.35672e-05	748
bin	2.36384e-05	668
bin	2.37096e-05	666
bin	2.37808e-05	634
bin	2.3852e-05	600
bin	2.39232e-05	556
bin	2.39944e-05	532
bin	2.40656e-05	514
bin	2.41368e-05	532
bin	2.4208e-05	496
bin	2.42792e-05	430
bin	2.43504e-05	470
bin	2.44216e-05	472
bin	2.44928e-05	524
bin	2.4564e-05	494
bin	2.46352e-05	562
bin	2.47064e-05	546
bin	2.47776e-05	594
bin	2.48488e-05	630
bin	2.492e-05	664
bin	2.49912e-05	834
bin	2.50624e-05	964
bin	2.51336e-05	1016
bin	2.52048e-05	1198
bin	2.5276e-05	1204
bin	2.53472e-05	1320
bin	2.54184e-05	1272
bin	2.54896e-05	1470
bin	2.55608e-05	1388
bin	2.5632e-05	1470
bin	2.57032e-05	1414
bin	2.57744e-05	1338
bin	2.58456e-05	1190
bin	2.59168e-05	1144
bin	2.5988e-05	942
bin	2.60592e-05	808
bin	2.61304e-05	744
bin	2.62016e-05	660
bin	2.62728e-05	598
bin	2.6344e-05	548
bin	2.64152e-05	524
bin	2.64864e-05	498
bin	2.65576e-05	564
bin	2.66288e-05	566
bin	2.67e-05	622
bin	2.67712e-05	578
bin	2.68424e-05	668
bin	2.69136e-05	614
bin	2.69848e-05	682
bin	2.7056e-05	664
bin	2.71272e-05	646
bin	2.71984e-05	648
bin	2.72696e-05	614
bin	2.73408e-05	616
bin	2.7412e-05	568
bin	2.74832e-05	532
bin	2.75544e-05	440
bin	2.76256e-05	462
bin	2.76968e-05	410
bin	2.7768e-05	414
bin	2.78392e-05	360
bin	2.79104e-05	346
bin	2.79816e-05	352
bin	2.80528e-05	366
bin	2.8124e-05	528
bin	2.81952e-05	572
bin	2.82664e-05	648
bin	2.83376e-05	748
bin	2.84088e-05	774
bin	2.848e-05	918
bin	2.85512e-05	986
bin	2.86224e-05	1122
bin	2.86936e-05	1138
bin	2.87648e-05	1332
bin	2.8836e-05	1228
bin	2.89072e-05	1290
bin	2.89784e-05	1232
bin	2.90496e-05	1190
bin	2.91208e-05	1042
bin	2.9192e-05	962
bin	2.92632e-05	860
bin	2.93344e-05	746
bin	2.94056e-05	720
bin	2.94768e-05	590
bin	2.9548e-05	560
bin	2.96192e-05	496
bin	2.96904e-05	438
bin	2.97616e-05	380
bin	2.98328e-05	388
bin	2.9904e-05	314
bin	2.99752e-05	322
bin	3.00464e-05	256
bin	3.01176e-05	316
bin	3.01888e-05	308
bin	3.026e-05	318
bin	3.03312e-05	378
bin	3.04024e-05	376
bin	3.04736e-05	430
bin	3.05448e-05	416
bin	3.0616e-05	488
bin	3.06872e-05	494
bin	3.07584e-05	572
bin	3.08296e-05	568
bin	3.09008e-05	606
bin	3.0972e-05	712
bin	3.10432e-05	728
bin	3.11144e-05	752
bin	3.11856e-05	676
bin	3.12568e-05	714
bin	3.1328e-05	634
bin	3.13992e-05	690
bin	3.14704e-05	704
bin	3.15416e-05	670
bin	3.16128e-05	742
bin	3.1684e-05	726
bin	3.17552e-05	788
bin	3.18264e-05	824
bin	3.18976e-05	904
bin	3.19688e-05	848
bin	3.204e-05	892
bin	3.21112e-05	844
bin	3.21824e-05	814
bin	3.22536e-05	764
bin	3.23248e-05	736
bin	3.2396e-05	658
bin	3.24672e-05	668
bin	3.25384e-05	694
bin	3.26096e-05	626
bin	3.26808e-05	620
bin	3.2752e-05	572
bin	3.28232e-05	620
bin	3.28944e-05	610
bin	3.29656e-05	620
bin	3.30368e-05	588
bin	3.3108e-05	594
bin	3.31792e-05	630
bin	3.32504e-05	556
bin	3.33216e-05	596
bin	3.33928e-05	532
bin	3.3464e-05	574
bin	3.35352e-05	514
bin	3.36064e-05	584
bin	3.36776e-05	552
bin	3.37488e-05	508
bin	3.382e-05	558
bin	3.38912e-05	526
bin	3.39624e-05	546
bin	3.40336e-05	530
bin	3.41048e-05	512
bin	3.4176e-05	502
bin	3.42472e-05	528
bin	3.43184e-05	522
bin	3.43896e-05	602
bin	3.44608e-05	568
bin	3.4532e-05	674
bin	3.46032e-05	652
bin	3.46744e-05	698
bin	3.47456e-05	772
bin	3.48168e-05	766
bin	3.4888e-05	830
bin	3.49592e-05	788
bin	3.50304e-05	868
bin	3.51016e-05	860
bin	3.51728e-05	828
bin	3.5244e-05	846
bin	3.53152e-05	814
bin	3.53864e-05	830
bin	3.54576e-05	678
bin	3.55288e-05	676
bin	3.56e-05	3667974
statistic Torus3d_bub.timer 	"Life Times"
field count 6291456
field mean 0.0010391029336894
field stddev 0.0010095812845512
field sum 6537.4703867775
field sqrsum 13.205697660946
field min 1.463666666e-06
field max 0.004722890333333
bin	-INF	0
bin	0	0
bin	8.544e-07	16
bin	1.7088e-06	104
bin	2.5632e-06	196
bin	3.4176e-06	402
bin	4.272e-06	694
bin	5.1264e-06	1086
bin	5.9808e-06	1656
bin	6.8352e-06	3116
bin	7.6896e-06	5182
bin	8.544e-06	8614
bin	9.3984e-06	12134
bin	1.02528e-05	17968
bin	1.11072e-05	22768
bin	1.19616e-05	26240
bin	1.2816e-05	28698
bin	1.36704e-05	30078
bin	1.45248e-05	30742
bin	1.53792e-05	29842
bin	1.62336e-05	29022
bin	1.7088e-05	29904
bin	1.79424e-05	30756
bin	1.87968e-05	31148
bin	1.96512e-05	31142
bin	2.05056e-05	31118
bin	2.136e-05	31718
bin	2.22144e-05	32584
bin	2.30688e-05	33552
bin	2.39232e-05	34580
bin	2.47776e-05	36296
bin	2.5632e-05	38558
bin	2.64864e-05	39786
bin	2.73408e-05	42380
bin	2.81952e-05	43408
bin	2.90496e-05	44128
bin	2.9904e-05	44922
bin	3.07584e-05	45606
bin	3.16128e-05	46844
bin	3.24672e-05	47406
bin	3.33216e-05	47836
bin	3.4176e-05	48590
bin	3.50304e-05	48658
bin	3.58848e-05	49012
bin	3.67392e-05	48550
bin	3.75936e-05	48190
bin	3.8448e-05	47984
bin	3.93024e-05	47426
bin	4.01568e-05	46242
bin	4.10112e-05	45286
bin	4.18656e-05	44144
bin	4.272e-05	43442
bin	4.35744e-05	42458
bin	4.44288e-05	40374
bin	4.52832e-05	39252
bin	4.61376e-05	37414
bin	4.6992e-05	35340
bin	4.78464e-05	32914
bin	4.87008e-05	29840
bin	4.95552e-05	27364
bin	5.04096e-05	24384
bin	5.1264e-05	20808
bin	5.21184e-05	17976
bin	5.29728e-05	15896
bin	5.38272e-05	13878
bin	5.46816e-05	11866
bin	5.5536e-05	10196
bin	5.63904e-05	8718
bin	5.72448e-05	7496
bin	5.80992e-05	6196
bin	5.89536e-05	5132
bin	5.9808e-05	4140
bin	6.06624e-05	3796
bin	6.15168e-05	3208
bin	6.23712e-05	2828
bin	6.32256e-05	2444
bin	6.408e-05	2244
bin	6.49344e-05	1944
bin	6.57888e-05	1586
bin	6.66432e-05	1408
bin	6.74976e-05	1154
bin	6.8352e-05	1016
bin	6.92064e-05	986
bin	7.00608e-05	918
bin	7.09152e-05	900
bin	7.17696e-05	928
bin	7.2624e-05	928
bin	7.34784e-05	952
bin	7.43328e-05	1104
bin	7.51872e-05	1232
bin	7.60416e-05	1504
bin	7.6896e-05	1812
bin	7.77504e-05	2498
bin	7.86048e-05	2994
bin	7.94592e-05	3706
bin	8.03136e-05	4330
bin	8.1168e-05	5300
bin	8.20224e-05	5654
bin	8.28768e-05	6294
bin	8.37312e-05	6808
bin	8.45856e-05	7280
bin	8.544e-05	7686
bin	8.62944e-05	7602
bin	8.71488e-05	8256
bin	8.80032e-05	8248
bin	8.88576e-05	8018
bin	8.9712e-05	7586
bin	9.05664e-05	7192
bin	9.14208e-05	6558
bin	9.22752e-05	5792
bin	9.31296e-05	5142
bin	9.3984e-05	4604
bin	9.48384e-05	4072
bin	9.56928e-05	3666
bin	9.65472e-05	3336
bin	9.74016e-05	3222
bin	9.8256e-05	2692
bin	9.91104e-05	2370
bin	9.99648e-05	2004
bin	0.0001008192	1820
bin	0.0001016736	1582
bin	0.000102528	1572
bin	0.0001033824	1494
bin	0.0001042368	1332
bin	0.0001050912	1268
bin	0.0001059456	1094
bin	0.0001068	938
bin	0.0001076544	844
bin	0.0001085088	856
bin	0.0001093632	782
bin	0.0001102176	704
bin	0.000111072	650
bin	0.0001119264	632
bin	0.0001127808	594
bin	0.0001136352	578
bin	0.0001144896	558
bin	0.000115344	590
bin	0.0001161984	658
bin	0.0001170528	728
bin	0.0001179072	862
bin	0.0001187616	1162
bin	0.000119616	1436
bin	0.0001204704	1724
bin	0.0001213248	2208
bin	0.0001221792	2706
bin	0.0001230336	2852
bin	0.000123888	3314
bin	0.0001247424	3654
bin	0.0001255968	4064
bin	0.0001264512	4258
bin	0.0001273056	4558
bin	0.00012816	4966
bin	0.0001290144	5154
bin	0.0001298688	5202
bin	0.0001307232	4848
bin	0.0001315776	4882
bin	0.000132432	4378
bin	0.0001332864	3708
bin	0.0001341408	3394
bin	0.0001349952	3196
bin	0.0001358496	2786
bin	0.000136704	2474
bin	0.0001375584	2348
bin	0.0001384128	2198
bin	0.0001392672	1892
bin	0.0001401216	1658
bin	0.000140976	1448
bin	0.0001418304	1256
bin	0.0001426848	1078
bin	0.0001435392	1114
bin	0.0001443936	1058
bin	0.000145248	924
bin	0.0001461024	856
bin	0.0001469568	742
bin	0.0001478112	782
bin	0.0001486656	634
bin	0.00014952	598
bin	0.0001503744	630
bin	0.0001512288	670
bin	0.0001520832	590
bin	0.0001529376	594
bin	0.000153792	622
bin	0.0001546464	650
bin	0.0001555008	628
bin	0.0001563552	692
bin	0.0001572096	750
bin	0.000158064	798
bin	0.0001589184	984
bin	0.0001597728	1212
bin	0.0001606272	1434
bin	0.0001614816	1584
bin	0.000162336	1990
bin	0.0001631904	2382
bin	0.0001640448	2598
bin	0.0001648992	2758
bin	0.0001657536	3026
bin	0.000166608	3318
bin	0.0001674624	3460
bin	0.0001683168	3610
bin	0.0001691712	3840
bin	0.0001700256	3914
bin	0.00017088	3952
bin	0.0001717344	3582
bin	0.0001725888	3400
bin	0.0001734432	3090
bin	0.0001742976	2770
bin	0.000175152	2478
bin	0.0001760064	2156
bin	0.0001768608	1912
bin	0.0001777152	1676
bin	0.0001785696	1676
bin	0.000179424	1418
bin	0.0001802784	1312
bin	0.0001811328	1180
bin	0.0001819872	1178
bin	0.0001828416	990
bin	0.000183696	916
bin	0.0001845504	906
bin	0.0001854048	956
bin	0.0001862592	928
bin	0.0001871136	914
bin	0.000187968	880
bin	0.0001888224	816
bin	0.0001896768	822
bin	0.0001905312	778
bin	0.0001913856	724
bin	0.00019224	708
bin	0.0001930944	732
bin	0.0001939488	768
bin	0.0001948032	730
bin	0.0001956576	634
bin	0.000196512	620
bin	0.0001973664	660
bin	0.0001982208	608
bin	0.0001990752	604
bin	0.0001999296	670
bin	0.000200784	806
bin	0.0002016384	1010
bin	0.0002024928	1258
bin	0.0002033472	1446
bin	0.0002042016	1756
bin	0.000205056	1990
bin	0.0002059104	2204
bin	0.0002067648	2622
bin	0.0002076192	2710
bin	0.0002084736	2742
bin	0.000209328	2972
bin	0.0002101824	3192
bin	0.0002110368	3070
bin	0.0002118912	3006
bin	0.0002127456	2952
bin	0.0002136	2876
bin	0.0002144544	2596
bin	0.0002153088	2226
bin	0.0002161632	2024
bin	0.0002170176	1878
bin	0.000217872	1676
bin	0.0002187264	1578
bin	0.0002195808	1484
bin	0.0002204352	1414
bin	0.0002212896	1262
bin	0.000222144	1118
bin	0.0002229984	952
bin	0.0002238528	870
bin	0.0002247072	870
bin	0.0002255616	768
bin	0.000226416	750
bin	0.0002272704	672
bin	0.0002281248	660
bin	0.0002289792	630
bin	0.0002298336	602
bin	0.000230688	534
bin	0.0002315424	592
bin	0.0002323968	568
bin	0.0002332512	576
bin	0.0002341056	536
bin	0.00023496	506
bin	0.0002358144	542
bin	0.0002366688	512
bin	0.0002375232	542
bin	0.0002383776	528
bin	0.000239232	542
bin	0.0002400864	560
bin	0.0002409408	632
bin	0.0002417952	764
bin	0.0002426496	894
bin	0.000243504	1010
bin	0.0002443584	1342
bin	0.0002452128	1464
bin	0.0002460672	1538
bin	0.0002469216	1736
bin	0.000247776	1892
bin	0.0002486304	1938
bin	0.0002494848	1888
bin	0.0002503392	2052
bin	0.0002511936	2220
bin	0.000252048	2176
bin	0.0002529024	2078
bin	0.0002537568	2036
bin	0.0002546112	2048
bin	0.0002554656	1660
bin	0.00025632	1406
bin	0.0002571744	1268
bin	0.0002580288	1204
bin	0.0002588832	1210
bin	0.0002597376	1076
bin	0.000260592	1008
bin	0.0002614464	840
bin	0.0002623008	826
bin	0.0002631552	788
bin	0.0002640096	706
bin	0.000264864	648
bin	0.0002657184	670
bin	0.0002665728	636
bin	0.0002674272	590
bin	0.0002682816	600
bin	0.000269136	580
bin	0.0002699904	500
bin	0.0002708448	538
bin	0.0002716992	576
bin	0.0002725536	560
bin	0.000273408	532
bin	0.0002742624	546
bin	0.0002751168	538
bin	0.0002759712	540
bin	0.0002768256	520
bin	0.00027768	552
bin	0.0002785344	542
bin	0.0002793888	510
bin	0.0002802432	486
bin	0.0002810976	552
bin	0.000281952	596
bin	0.0002828064	590
bin	0.0002836608	684
bin	0.0002845152	806
bin	0.0002853696	1028
bin	0.000286224	1172
bin	0.0002870784	1242
bin	0.0002879328	1294
bin	0.0002887872	1520
bin	0.0002896416	1612
bin	0.000290496	1668
bin	0.0002913504	1722
bin	0.0002922048	1932
bin	0.0002930592	1894
bin	0.0002939136	1798
bin	0.000294768	1640
bin	0.0002956224	1704
bin	0.0002964768	1378
bin	0.0002973312	1192
bin	0.0002981856	1146
bin	0.00029904	1098
bin	0.0002998944	1044
bin	0.0003007488	1014
bin	0.0003016032	848
bin	0.0003024576	906
bin	0.000303312	828
bin	0.0003041664	740
bin	0.0003050208	602
bin	0.0003058752	670
bin	0.0003067296	604
bin	0.000307584	578
bin	0.0003084384	552
bin	0.0003092928	544
bin	0.0003101472	570
bin	0.0003110016	520
bin	0.000311856	552
bin	0.0003127104	520
bin	0.0003135648	560
bin	0.0003144192	554
bin	0.0003152736	564
bin	0.000316128	584
bin	0.0003169824	572
bin	0.0003178368	594
bin	0.0003186912	608
bin	0.0003195456	650
bin	0.0003204	610
bin	0.0003212544	666
bin	0.0003221088	710
bin	0.0003229632	698
bin	0.0003238176	720
bin	0.000324672	812
bin	0.0003255264	784
bin	0.0003263808	880
bin	0.0003272352	1016
bin	0.0003280896	962
bin	0.000328944	1032
bin	0.0003297984	1114
bin	0.0003306528	1106
bin	0.0003315072	1164
bin	0.0003323616	1168
bin	0.000333216	1268
bin	0.0003340704	1228
bin	0.0003349248	1154
bin	0.0003357792	1072
bin	0.0003366336	1150
bin	0.000337488	920
bin	0.0003383424	852
bin	0.0003391968	862
bin	0.0003400512	812
bin	0.0003409056	756
bin	0.00034176	730
bin	0.0003426144	666
bin	0.0003434688	638
bin	0.0003443232	614
bin	0.0003451776	574
bin	0.000346032	626
bin	0.0003468864	666
bin	0.0003477408	636
bin	0.0003485952	610
bin	0.0003494496	706
bin	0.000350304	662
bin	0.0003511584	594
bin	0.0003520128	612
bin	0.0003528672	616
bin	0.0003537216	572
bin	0.000354576	524
bin	0.0003554304	528
bin	0.0003562848	528
bin	0.0003571392	472
bin	0.0003579936	424
bin	0.000358848	394
bin	0.0003597024	424
bin	0.0003605568	374
bin	0.0003614112	362
bin	0.0003622656	340
bin	0.00036312	332
bin	0.0003639744	308
bin	0.0003648288	334
bin	0.0003656832	452
bin	0.0003665376	480
bin	0.000367392	554
bin	0.0003682464	598
bin	0.0003691008	658
bin	0.0003699552	756
bin	0.0003708096	840
bin	0.000371664	926
bin	0.0003725184	928
bin	0.0003733728	1042
bin	0.0003742272	1214
bin	0.0003750816	1104
bin	0.000375936	1088
bin	0.0003767904	1128
bin	0.0003776448	1098
bin	0.0003784992	998
bin	0.0003793536	894
bin	0.000380208	824
bin	0.0003810624	824
bin	0.0003819168	736
bin	0.0003827712	702
bin	0.0003836256	684
bin	0.00038448	658
bin	0.0003853344	530
bin	0.0003861888	504
bin	0.0003870432	494
bin	0.0003878976	466
bin	0.000388752	400
bin	0.0003896064	378
bin	0.0003904608	336
bin	0.0003913152	330
bin	0.0003921696	306
bin	0.000393024	324
bin	0.0003938784	346
bin	0.0003947328	330
bin	0.0003955872	334
bin	0.0003964416	350
bin	0.000397296	354
bin	0.0003981504	350
bin	0.0003990048	396
bin	0.0003998592	432
bin	0.0004007136	424
bin	0.000401568	432
bin	0.0004024224	512
bin	0.0004032768	534
bin	0.0004041312	556
bin	0.0004049856	562
bin	0.00040584	608
bin	0.0004066944	616
bin	0.0004075488	588
bin	0.0004084032	710
bin	0.0004092576	690
bin	0.000410112	670
bin	0.0004109664	738
bin	0.0004118208	766
bin	0.0004126752	760
bin	0.0004135296	778
bin	0.000414384	872
bin	0.0004152384	826
bin	0.0004160928	852
bin	0.0004169472	782
bin	0.0004178016	806
bin	0.000418656	740
bin	0.0004195104	636
bin	0.0004203648	610
bin	0.0004212192	564
bin	0.0004220736	598
bin	0.000422928	542
bin	0.0004237824	580
bin	0.0004246368	502
bin	0.0004254912	454
bin	0.0004263456	440
bin	0.0004272	3701868
