version 2
run Butterfly-173-20120709-14:58:44-24224
attr alg 1
attr buf 8
attr configname Butterfly
attr datetime 20120709-14:58:44
attr delta 1.6
attr experiment Butterfly
attr ext false
attr inifile altro.ini
attr iterationvars "$buf=8, $ext=false, $ofedge=2, $delta=1.6, $alg=1"
attr iterationvars2 "$buf=8, $ext=false, $ofedge=2, $delta=1.6, $alg=1, $repetition=0"
attr measurement "$buf=8, $ext=false, $ofedge=2, $delta=1.6, $alg=1"
attr network Torus3d_bub
attr ofedge 2
attr processid 24224
attr repetition 0
attr replication #0
attr resultdir altro-results
attr runnumber 173
attr seedset 173

scalar . 	alg 	1
scalar . 	buf 	8
scalar . 	delta 	1.6
scalar . 	ofedge 	2
scalar Torus3d_bub.timer 	#endTime 	0.001013594998439
scalar Torus3d_bub.timer 	#totalHops 	46842065
scalar Torus3d_bub.timer 	#totalPacks 	6291456
scalar Torus3d_bub.timer 	#totalDerouted 	3913147
scalar Torus3d_bub.timer 	#totalOutFlanked 	3913147
scalar Torus3d_bub.timer 	#totalCQRed 	0
scalar Torus3d_bub.timer 	#LB 	0.000786432
scalar Torus3d_bub.timer 	#ratio 	0.77588386013265
statistic Torus3d_bub.timer 	"Hop Times"
field count 6291456
field mean 4.5827155559675e-05
field stddev 6.5698883855313e-05
field sum 288.31953280885
field sqrsum 0.040368943968039
field min 4.94999993e-07
field max 0.000649900333285
bin	-INF	0
bin	0	0
bin	7.12e-08	0
bin	1.424e-07	0
bin	2.136e-07	0
bin	2.848e-07	0
bin	3.56e-07	0
bin	4.272e-07	1
bin	4.984e-07	6175
bin	5.696e-07	3146
bin	6.408e-07	2189
bin	7.12e-07	8498
bin	7.832e-07	3328
bin	8.544e-07	4440
bin	9.256e-07	6750
bin	9.968e-07	6805
bin	1.068e-06	5125
bin	1.1392e-06	8260
bin	1.2104e-06	9640
bin	1.2816e-06	8744
bin	1.3528e-06	12506
bin	1.424e-06	8804
bin	1.4952e-06	15957
bin	1.5664e-06	9002
bin	1.6376e-06	14021
bin	1.7088e-06	11160
bin	1.78e-06	17416
bin	1.8512e-06	10140
bin	1.9224e-06	18108
bin	1.9936e-06	15678
bin	2.0648e-06	20875
bin	2.136e-06	13537
bin	2.2072e-06	8820
bin	2.2784e-06	18351
bin	2.3496e-06	10137
bin	2.4208e-06	15053
bin	2.492e-06	15391
bin	2.5632e-06	20745
bin	2.6344e-06	13377
bin	2.7056e-06	12494
bin	2.7768e-06	11124
bin	2.848e-06	16726
bin	2.9192e-06	10156
bin	2.9904e-06	11647
bin	3.0616e-06	16817
bin	3.1328e-06	7959
bin	3.204e-06	8164
bin	3.2752e-06	7208
bin	3.3464e-06	11124
bin	3.4176e-06	8022
bin	3.4888e-06	7467
bin	3.56e-06	8260
bin	3.6312e-06	11270
bin	3.7024e-06	7299
bin	3.7736e-06	7486
bin	3.8448e-06	13730
bin	3.916e-06	8458
bin	3.9872e-06	8607
bin	4.0584e-06	8702
bin	4.1296e-06	11716
bin	4.2008e-06	8495
bin	4.272e-06	7713
bin	4.3432e-06	7786
bin	4.4144e-06	12659
bin	4.4856e-06	7592
bin	4.5568e-06	7615
bin	4.628e-06	11948
bin	4.6992e-06	7541
bin	4.7704e-06	9553
bin	4.8416e-06	10155
bin	4.9128e-06	11614
bin	4.984e-06	7490
bin	5.0552e-06	7721
bin	5.1264e-06	8712
bin	5.1976e-06	11696
bin	5.2688e-06	7494
bin	5.34e-06	7924
bin	5.4112e-06	12330
bin	5.4824e-06	7495
bin	5.5536e-06	7725
bin	5.6248e-06	7809
bin	5.696e-06	11904
bin	5.7672e-06	7607
bin	5.8384e-06	7780
bin	5.9096e-06	9788
bin	5.9808e-06	11540
bin	6.052e-06	7374
bin	6.1232e-06	7633
bin	6.1944e-06	12059
bin	6.2656e-06	7438
bin	6.3368e-06	7932
bin	6.408e-06	7844
bin	6.4792e-06	11745
bin	6.5504e-06	7730
bin	6.6216e-06	7611
bin	6.6928e-06	7385
bin	6.764e-06	11598
bin	6.8352e-06	7310
bin	6.9064e-06	7561
bin	6.9776e-06	11689
bin	7.0488e-06	7204
bin	7.12e-06	7473
bin	7.1912e-06	7472
bin	7.2624e-06	11298
bin	7.3336e-06	7343
bin	7.4048e-06	7073
bin	7.476e-06	7418
bin	7.5472e-06	11409
bin	7.6184e-06	7223
bin	7.6896e-06	7314
bin	7.7608e-06	11618
bin	7.832e-06	7157
bin	7.9032e-06	7317
bin	7.9744e-06	7475
bin	8.0456e-06	9155
bin	8.1168e-06	7330
bin	8.188e-06	7321
bin	8.2592e-06	7250
bin	8.3304e-06	11356
bin	8.4016e-06	7186
bin	8.4728e-06	7335
bin	8.544e-06	11654
bin	8.6152e-06	7237
bin	8.6864e-06	7299
bin	8.7576e-06	7384
bin	8.8288e-06	11381
bin	8.9e-06	7407
bin	8.9712e-06	7531
bin	9.0424e-06	7454
bin	9.1136e-06	9482
bin	9.1848e-06	7518
bin	9.256e-06	7421
bin	9.3272e-06	12720
bin	9.3984e-06	7419
bin	9.4696e-06	7601
bin	9.5408e-06	7748
bin	9.612e-06	11663
bin	9.6832e-06	7688
bin	9.7544e-06	8647
bin	9.8256e-06	7829
bin	9.8968e-06	7685
bin	9.968e-06	7583
bin	1.00392e-05	7814
bin	1.01104e-05	12028
bin	1.01816e-05	7643
bin	1.02528e-05	7714
bin	1.0324e-05	7796
bin	1.03952e-05	9810
bin	1.04664e-05	7797
bin	1.05376e-05	7900
bin	1.06088e-05	7652
bin	1.068e-05	9739
bin	1.07512e-05	7746
bin	1.08224e-05	7762
bin	1.08936e-05	9886
bin	1.09648e-05	7562
bin	1.1036e-05	7652
bin	1.11072e-05	7585
bin	1.11784e-05	11594
bin	1.12496e-05	7720
bin	1.13208e-05	7575
bin	1.1392e-05	7619
bin	1.14632e-05	11715
bin	1.15344e-05	7600
bin	1.16056e-05	7633
bin	1.16768e-05	11718
bin	1.1748e-05	7594
bin	1.18192e-05	7629
bin	1.18904e-05	7926
bin	1.19616e-05	11638
bin	1.20328e-05	7810
bin	1.2104e-05	7607
bin	1.21752e-05	7562
bin	1.22464e-05	11817
bin	1.23176e-05	8685
bin	1.23888e-05	7663
bin	1.246e-05	10816
bin	1.25312e-05	7667
bin	1.26024e-05	7846
bin	1.26736e-05	7976
bin	1.27448e-05	7766
bin	1.2816e-05	7716
bin	1.28872e-05	8740
bin	1.29584e-05	8807
bin	1.30296e-05	7789
bin	1.31008e-05	7662
bin	1.3172e-05	7715
bin	1.32432e-05	7798
bin	1.33144e-05	7662
bin	1.33856e-05	8983
bin	1.34568e-05	7758
bin	1.3528e-05	8664
bin	1.35992e-05	7865
bin	1.36704e-05	8764
bin	1.37416e-05	7762
bin	1.38128e-05	7653
bin	1.3884e-05	7654
bin	1.39552e-05	7614
bin	1.40264e-05	7600
bin	1.40976e-05	7699
bin	1.41688e-05	7806
bin	1.424e-05	7776
bin	1.43112e-05	7824
bin	1.43824e-05	7840
bin	1.44536e-05	7884
bin	1.45248e-05	7811
bin	1.4596e-05	7813
bin	1.46672e-05	7884
bin	1.47384e-05	7796
bin	1.48096e-05	7849
bin	1.48808e-05	7840
bin	1.4952e-05	7703
bin	1.50232e-05	7861
bin	1.50944e-05	7773
bin	1.51656e-05	7962
bin	1.52368e-05	8001
bin	1.5308e-05	7908
bin	1.53792e-05	7693
bin	1.54504e-05	7898
bin	1.55216e-05	7972
bin	1.55928e-05	7996
bin	1.5664e-05	8092
bin	1.57352e-05	7806
bin	1.58064e-05	7991
bin	1.58776e-05	8124
bin	1.59488e-05	7912
bin	1.602e-05	7977
bin	1.60912e-05	8055
bin	1.61624e-05	7875
bin	1.62336e-05	7911
bin	1.63048e-05	7967
bin	1.6376e-05	7935
bin	1.64472e-05	8028
bin	1.65184e-05	7876
bin	1.65896e-05	7856
bin	1.66608e-05	7867
bin	1.6732e-05	7945
bin	1.68032e-05	8110
bin	1.68744e-05	7972
bin	1.69456e-05	7898
bin	1.70168e-05	8015
bin	1.7088e-05	7833
bin	1.71592e-05	7844
bin	1.72304e-05	8052
bin	1.73016e-05	8102
bin	1.73728e-05	8223
bin	1.7444e-05	8071
bin	1.75152e-05	8062
bin	1.75864e-05	8060
bin	1.76576e-05	7996
bin	1.77288e-05	8055
bin	1.78e-05	8080
bin	1.78712e-05	7845
bin	1.79424e-05	7902
bin	1.80136e-05	8177
bin	1.80848e-05	8194
bin	1.8156e-05	8074
bin	1.82272e-05	8161
bin	1.82984e-05	8102
bin	1.83696e-05	8154
bin	1.84408e-05	8028
bin	1.8512e-05	8043
bin	1.85832e-05	8098
bin	1.86544e-05	8148
bin	1.87256e-05	8219
bin	1.87968e-05	8141
bin	1.8868e-05	8224
bin	1.89392e-05	8126
bin	1.90104e-05	8028
bin	1.90816e-05	8392
bin	1.91528e-05	8159
bin	1.9224e-05	8081
bin	1.92952e-05	8214
bin	1.93664e-05	8174
bin	1.94376e-05	8232
bin	1.95088e-05	8151
bin	1.958e-05	8420
bin	1.96512e-05	8398
bin	1.97224e-05	8511
bin	1.97936e-05	8310
bin	1.98648e-05	8167
bin	1.9936e-05	8305
bin	2.00072e-05	8158
bin	2.00784e-05	8305
bin	2.01496e-05	8352
bin	2.02208e-05	8143
bin	2.0292e-05	8122
bin	2.03632e-05	8332
bin	2.04344e-05	8225
bin	2.05056e-05	8312
bin	2.05768e-05	8224
bin	2.0648e-05	8276
bin	2.07192e-05	8413
bin	2.07904e-05	8257
bin	2.08616e-05	8355
bin	2.09328e-05	8232
bin	2.1004e-05	8303
bin	2.10752e-05	8122
bin	2.11464e-05	8325
bin	2.12176e-05	8243
bin	2.12888e-05	8422
bin	2.136e-05	8318
bin	2.14312e-05	8142
bin	2.15024e-05	8238
bin	2.15736e-05	8251
bin	2.16448e-05	8352
bin	2.1716e-05	8311
bin	2.17872e-05	8478
bin	2.18584e-05	8219
bin	2.19296e-05	8450
bin	2.20008e-05	8234
bin	2.2072e-05	8370
bin	2.21432e-05	8220
bin	2.22144e-05	8290
bin	2.22856e-05	8365
bin	2.23568e-05	8170
bin	2.2428e-05	8258
bin	2.24992e-05	8163
bin	2.25704e-05	8415
bin	2.26416e-05	8047
bin	2.27128e-05	8326
bin	2.2784e-05	8341
bin	2.28552e-05	8341
bin	2.29264e-05	8254
bin	2.29976e-05	8189
bin	2.30688e-05	8223
bin	2.314e-05	8268
bin	2.32112e-05	8225
bin	2.32824e-05	8352
bin	2.33536e-05	8367
bin	2.34248e-05	8230
bin	2.3496e-05	8217
bin	2.35672e-05	8281
bin	2.36384e-05	8249
bin	2.37096e-05	8323
bin	2.37808e-05	8209
bin	2.3852e-05	8290
bin	2.39232e-05	8243
bin	2.39944e-05	8330
bin	2.40656e-05	8187
bin	2.41368e-05	8453
bin	2.4208e-05	8138
bin	2.42792e-05	8336
bin	2.43504e-05	8149
bin	2.44216e-05	8398
bin	2.44928e-05	8161
bin	2.4564e-05	8019
bin	2.46352e-05	8279
bin	2.47064e-05	8094
bin	2.47776e-05	8238
bin	2.48488e-05	8331
bin	2.492e-05	8246
bin	2.49912e-05	8152
bin	2.50624e-05	8292
bin	2.51336e-05	8205
bin	2.52048e-05	8391
bin	2.5276e-05	8147
bin	2.53472e-05	8172
bin	2.54184e-05	8237
bin	2.54896e-05	8057
bin	2.55608e-05	8202
bin	2.5632e-05	8132
bin	2.57032e-05	8457
bin	2.57744e-05	8194
bin	2.58456e-05	8236
bin	2.59168e-05	8162
bin	2.5988e-05	8233
bin	2.60592e-05	8163
bin	2.61304e-05	8085
bin	2.62016e-05	8327
bin	2.62728e-05	8035
bin	2.6344e-05	8131
bin	2.64152e-05	8208
bin	2.64864e-05	8312
bin	2.65576e-05	8122
bin	2.66288e-05	8223
bin	2.67e-05	8116
bin	2.67712e-05	8294
bin	2.68424e-05	8125
bin	2.69136e-05	8304
bin	2.69848e-05	8072
bin	2.7056e-05	8137
bin	2.71272e-05	8165
bin	2.71984e-05	8165
bin	2.72696e-05	8285
bin	2.73408e-05	8129
bin	2.7412e-05	8079
bin	2.74832e-05	8142
bin	2.75544e-05	8145
bin	2.76256e-05	7982
bin	2.76968e-05	7998
bin	2.7768e-05	8052
bin	2.78392e-05	7819
bin	2.79104e-05	7976
bin	2.79816e-05	8079
bin	2.80528e-05	7913
bin	2.8124e-05	7864
bin	2.81952e-05	7944
bin	2.82664e-05	7877
bin	2.83376e-05	8111
bin	2.84088e-05	8038
bin	2.848e-05	7985
bin	2.85512e-05	8109
bin	2.86224e-05	7811
bin	2.86936e-05	7927
bin	2.87648e-05	7952
bin	2.8836e-05	8084
bin	2.89072e-05	7796
bin	2.89784e-05	7982
bin	2.90496e-05	7818
bin	2.91208e-05	7871
bin	2.9192e-05	7749
bin	2.92632e-05	7860
bin	2.93344e-05	8032
bin	2.94056e-05	7702
bin	2.94768e-05	7769
bin	2.9548e-05	7918
bin	2.96192e-05	7750
bin	2.96904e-05	7669
bin	2.97616e-05	7817
bin	2.98328e-05	7673
bin	2.9904e-05	7817
bin	2.99752e-05	7673
bin	3.00464e-05	7655
bin	3.01176e-05	7876
bin	3.01888e-05	7542
bin	3.026e-05	7460
bin	3.03312e-05	7551
bin	3.04024e-05	7574
bin	3.04736e-05	7479
bin	3.05448e-05	7563
bin	3.0616e-05	7495
bin	3.06872e-05	7563
bin	3.07584e-05	7450
bin	3.08296e-05	7338
bin	3.09008e-05	7700
bin	3.0972e-05	7128
bin	3.10432e-05	7316
bin	3.11144e-05	7273
bin	3.11856e-05	7395
bin	3.12568e-05	7097
bin	3.1328e-05	7342
bin	3.13992e-05	7220
bin	3.14704e-05	7144
bin	3.15416e-05	7082
bin	3.16128e-05	7207
bin	3.1684e-05	7265
bin	3.17552e-05	7019
bin	3.18264e-05	7021
bin	3.18976e-05	7090
bin	3.19688e-05	7065
bin	3.204e-05	6922
bin	3.21112e-05	7137
bin	3.21824e-05	6748
bin	3.22536e-05	6813
bin	3.23248e-05	6830
bin	3.2396e-05	7067
bin	3.24672e-05	6891
bin	3.25384e-05	6805
bin	3.26096e-05	6834
bin	3.26808e-05	6868
bin	3.2752e-05	6815
bin	3.28232e-05	6589
bin	3.28944e-05	6711
bin	3.29656e-05	6677
bin	3.30368e-05	6666
bin	3.3108e-05	6565
bin	3.31792e-05	6608
bin	3.32504e-05	6555
bin	3.33216e-05	6417
bin	3.33928e-05	6433
bin	3.3464e-05	6717
bin	3.35352e-05	6373
bin	3.36064e-05	6293
bin	3.36776e-05	6488
bin	3.37488e-05	6400
bin	3.382e-05	6316
bin	3.38912e-05	6168
bin	3.39624e-05	6310
bin	3.40336e-05	6205
bin	3.41048e-05	6168
bin	3.4176e-05	6094
bin	3.42472e-05	6266
bin	3.43184e-05	6054
bin	3.43896e-05	5986
bin	3.44608e-05	5998
bin	3.4532e-05	5983
bin	3.46032e-05	6029
bin	3.46744e-05	5961
bin	3.47456e-05	5944
bin	3.48168e-05	5950
bin	3.4888e-05	5790
bin	3.49592e-05	5817
bin	3.50304e-05	5974
bin	3.51016e-05	5802
bin	3.51728e-05	5670
bin	3.5244e-05	5840
bin	3.53152e-05	5787
bin	3.53864e-05	5808
bin	3.54576e-05	5653
bin	3.55288e-05	5637
bin	3.56e-05	2206852
statistic Torus3d_bub.timer 	"Life Times"
field count 6291456
field mean 0.00020785050619399
field stddev 0.00013429962627647
field sum 1307.6823142972
field sqrsum 0.38527756461172
field min 5.2e-07
field max 0.000818064332083
bin	-INF	0
bin	0	8337
bin	8.544e-07	19552
bin	1.7088e-06	24549
bin	2.5632e-06	27103
bin	3.4176e-06	21351
bin	4.272e-06	26899
bin	5.1264e-06	28508
bin	5.9808e-06	28664
bin	6.8352e-06	20729
bin	7.6896e-06	25116
bin	8.544e-06	24644
bin	9.3984e-06	22783
bin	1.02528e-05	25314
bin	1.11072e-05	32493
bin	1.19616e-05	39181
bin	1.2816e-05	13977
bin	1.36704e-05	15006
bin	1.45248e-05	14289
bin	1.53792e-05	23730
bin	1.62336e-05	21375
bin	1.7088e-05	18270
bin	1.79424e-05	21432
bin	1.87968e-05	16129
bin	1.96512e-05	14639
bin	2.05056e-05	15845
bin	2.136e-05	15640
bin	2.22144e-05	15935
bin	2.30688e-05	16108
bin	2.39232e-05	16944
bin	2.47776e-05	15951
bin	2.5632e-05	15266
bin	2.64864e-05	16368
bin	2.73408e-05	13657
bin	2.81952e-05	12964
bin	2.90496e-05	16242
bin	2.9904e-05	13782
bin	3.07584e-05	14430
bin	3.16128e-05	13151
bin	3.24672e-05	13363
bin	3.33216e-05	13088
bin	3.4176e-05	12689
bin	3.50304e-05	12664
bin	3.58848e-05	12627
bin	3.67392e-05	12940
bin	3.75936e-05	13154
bin	3.8448e-05	13154
bin	3.93024e-05	13320
bin	4.01568e-05	13273
bin	4.10112e-05	13437
bin	4.18656e-05	13676
bin	4.272e-05	13246
bin	4.35744e-05	13134
bin	4.44288e-05	13085
bin	4.52832e-05	13098
bin	4.61376e-05	12635
bin	4.6992e-05	12855
bin	4.78464e-05	12716
bin	4.87008e-05	12634
bin	4.95552e-05	12685
bin	5.04096e-05	12128
bin	5.1264e-05	12312
bin	5.21184e-05	12244
bin	5.29728e-05	11985
bin	5.38272e-05	11848
bin	5.46816e-05	11758
bin	5.5536e-05	11725
bin	5.63904e-05	11735
bin	5.72448e-05	11729
bin	5.80992e-05	11667
bin	5.89536e-05	11598
bin	5.9808e-05	11456
bin	6.06624e-05	11611
bin	6.15168e-05	11818
bin	6.23712e-05	11501
bin	6.32256e-05	11647
bin	6.408e-05	12093
bin	6.49344e-05	11618
bin	6.57888e-05	11511
bin	6.66432e-05	11394
bin	6.74976e-05	11673
bin	6.8352e-05	11642
bin	6.92064e-05	11546
bin	7.00608e-05	11501
bin	7.09152e-05	11634
bin	7.17696e-05	11238
bin	7.2624e-05	11459
bin	7.34784e-05	11478
bin	7.43328e-05	11403
bin	7.51872e-05	11327
bin	7.60416e-05	11458
bin	7.6896e-05	11408
bin	7.77504e-05	11152
bin	7.86048e-05	11020
bin	7.94592e-05	11438
bin	8.03136e-05	11381
bin	8.1168e-05	11074
bin	8.20224e-05	11058
bin	8.28768e-05	11383
bin	8.37312e-05	11288
bin	8.45856e-05	11409
bin	8.544e-05	11357
bin	8.62944e-05	11409
bin	8.71488e-05	11217
bin	8.80032e-05	10999
bin	8.88576e-05	11293
bin	8.9712e-05	11273
bin	9.05664e-05	11197
bin	9.14208e-05	11236
bin	9.22752e-05	11239
bin	9.31296e-05	11134
bin	9.3984e-05	11201
bin	9.48384e-05	11257
bin	9.56928e-05	11200
bin	9.65472e-05	11234
bin	9.74016e-05	11368
bin	9.8256e-05	11195
bin	9.91104e-05	11129
bin	9.99648e-05	11231
bin	0.0001008192	11106
bin	0.0001016736	11365
bin	0.000102528	11387
bin	0.0001033824	11434
bin	0.0001042368	11199
bin	0.0001050912	11052
bin	0.0001059456	11175
bin	0.0001068	11153
bin	0.0001076544	11313
bin	0.0001085088	11312
bin	0.0001093632	11118
bin	0.0001102176	11268
bin	0.000111072	11206
bin	0.0001119264	11197
bin	0.0001127808	11164
bin	0.0001136352	11207
bin	0.0001144896	11301
bin	0.000115344	11203
bin	0.0001161984	11410
bin	0.0001170528	11569
bin	0.0001179072	11357
bin	0.0001187616	11337
bin	0.000119616	11235
bin	0.0001204704	11638
bin	0.0001213248	11526
bin	0.0001221792	11390
bin	0.0001230336	11341
bin	0.000123888	11495
bin	0.0001247424	11377
bin	0.0001255968	11436
bin	0.0001264512	11552
bin	0.0001273056	11684
bin	0.00012816	11546
bin	0.0001290144	11536
bin	0.0001298688	11718
bin	0.0001307232	11797
bin	0.0001315776	11704
bin	0.000132432	11813
bin	0.0001332864	11771
bin	0.0001341408	11626
bin	0.0001349952	11897
bin	0.0001358496	11812
bin	0.000136704	11833
bin	0.0001375584	11985
bin	0.0001384128	11980
bin	0.0001392672	11783
bin	0.0001401216	11786
bin	0.000140976	11899
bin	0.0001418304	12032
bin	0.0001426848	11957
bin	0.0001435392	11722
bin	0.0001443936	11846
bin	0.000145248	11757
bin	0.0001461024	11873
bin	0.0001469568	12051
bin	0.0001478112	12007
bin	0.0001486656	11986
bin	0.00014952	11920
bin	0.0001503744	12057
bin	0.0001512288	12240
bin	0.0001520832	12140
bin	0.0001529376	12141
bin	0.000153792	12083
bin	0.0001546464	12154
bin	0.0001555008	12082
bin	0.0001563552	12054
bin	0.0001572096	12181
bin	0.000158064	12170
bin	0.0001589184	12256
bin	0.0001597728	11928
bin	0.0001606272	12276
bin	0.0001614816	12168
bin	0.000162336	12271
bin	0.0001631904	12257
bin	0.0001640448	12418
bin	0.0001648992	12221
bin	0.0001657536	12186
bin	0.000166608	12089
bin	0.0001674624	12238
bin	0.0001683168	12240
bin	0.0001691712	12340
bin	0.0001700256	12368
bin	0.00017088	12592
bin	0.0001717344	12303
bin	0.0001725888	12472
bin	0.0001734432	12547
bin	0.0001742976	12409
bin	0.000175152	12512
bin	0.0001760064	12493
bin	0.0001768608	12594
bin	0.0001777152	12447
bin	0.0001785696	12546
bin	0.000179424	12643
bin	0.0001802784	12923
bin	0.0001811328	12605
bin	0.0001819872	12802
bin	0.0001828416	12634
bin	0.000183696	12942
bin	0.0001845504	12818
bin	0.0001854048	12931
bin	0.0001862592	12806
bin	0.0001871136	12822
bin	0.000187968	12860
bin	0.0001888224	12665
bin	0.0001896768	12644
bin	0.0001905312	12711
bin	0.0001913856	12807
bin	0.00019224	12859
bin	0.0001930944	12851
bin	0.0001939488	12701
bin	0.0001948032	12786
bin	0.0001956576	12819
bin	0.000196512	12850
bin	0.0001973664	12902
bin	0.0001982208	12699
bin	0.0001990752	12739
bin	0.0001999296	12893
bin	0.000200784	12953
bin	0.0002016384	12858
bin	0.0002024928	12738
bin	0.0002033472	12692
bin	0.0002042016	12804
bin	0.000205056	12773
bin	0.0002059104	12718
bin	0.0002067648	13010
bin	0.0002076192	12981
bin	0.0002084736	13193
bin	0.000209328	13048
bin	0.0002101824	12962
bin	0.0002110368	13108
bin	0.0002118912	13148
bin	0.0002127456	13192
bin	0.0002136	13035
bin	0.0002144544	12845
bin	0.0002153088	13194
bin	0.0002161632	13302
bin	0.0002170176	13109
bin	0.000217872	13089
bin	0.0002187264	12973
bin	0.0002195808	13000
bin	0.0002204352	12986
bin	0.0002212896	12878
bin	0.000222144	12607
bin	0.0002229984	13014
bin	0.0002238528	12794
bin	0.0002247072	12934
bin	0.0002255616	12760
bin	0.000226416	13042
bin	0.0002272704	13055
bin	0.0002281248	12987
bin	0.0002289792	13225
bin	0.0002298336	13001
bin	0.000230688	12983
bin	0.0002315424	12912
bin	0.0002323968	12715
bin	0.0002332512	12752
bin	0.0002341056	12856
bin	0.00023496	12804
bin	0.0002358144	12910
bin	0.0002366688	12822
bin	0.0002375232	12802
bin	0.0002383776	12712
bin	0.000239232	12650
bin	0.0002400864	12759
bin	0.0002409408	12720
bin	0.0002417952	12826
bin	0.0002426496	12660
bin	0.000243504	12662
bin	0.0002443584	12384
bin	0.0002452128	12557
bin	0.0002460672	12389
bin	0.0002469216	12484
bin	0.000247776	12543
bin	0.0002486304	12434
bin	0.0002494848	12371
bin	0.0002503392	12474
bin	0.0002511936	12236
bin	0.000252048	12304
bin	0.0002529024	12333
bin	0.0002537568	12364
bin	0.0002546112	12382
bin	0.0002554656	12456
bin	0.00025632	12513
bin	0.0002571744	12339
bin	0.0002580288	12282
bin	0.0002588832	12477
bin	0.0002597376	12300
bin	0.000260592	12252
bin	0.0002614464	12178
bin	0.0002623008	12303
bin	0.0002631552	12287
bin	0.0002640096	12287
bin	0.000264864	12140
bin	0.0002657184	12119
bin	0.0002665728	11969
bin	0.0002674272	12170
bin	0.0002682816	12141
bin	0.000269136	12258
bin	0.0002699904	12033
bin	0.0002708448	12185
bin	0.0002716992	12099
bin	0.0002725536	12133
bin	0.000273408	12041
bin	0.0002742624	11793
bin	0.0002751168	11838
bin	0.0002759712	11646
bin	0.0002768256	11890
bin	0.00027768	11761
bin	0.0002785344	11810
bin	0.0002793888	11774
bin	0.0002802432	11833
bin	0.0002810976	11868
bin	0.000281952	11730
bin	0.0002828064	11827
bin	0.0002836608	11683
bin	0.0002845152	11826
bin	0.0002853696	11727
bin	0.000286224	11719
bin	0.0002870784	11728
bin	0.0002879328	11537
bin	0.0002887872	11765
bin	0.0002896416	11868
bin	0.000290496	11751
bin	0.0002913504	11798
bin	0.0002922048	11582
bin	0.0002930592	11607
bin	0.0002939136	11785
bin	0.000294768	11620
bin	0.0002956224	11709
bin	0.0002964768	11580
bin	0.0002973312	11756
bin	0.0002981856	11760
bin	0.00029904	11668
bin	0.0002998944	11434
bin	0.0003007488	11618
bin	0.0003016032	11536
bin	0.0003024576	11679
bin	0.000303312	11457
bin	0.0003041664	11473
bin	0.0003050208	11447
bin	0.0003058752	11566
bin	0.0003067296	11522
bin	0.000307584	11538
bin	0.0003084384	11468
bin	0.0003092928	11413
bin	0.0003101472	11373
bin	0.0003110016	11179
bin	0.000311856	11311
bin	0.0003127104	11312
bin	0.0003135648	11282
bin	0.0003144192	11200
bin	0.0003152736	11266
bin	0.000316128	11477
bin	0.0003169824	11264
bin	0.0003178368	11142
bin	0.0003186912	11132
bin	0.0003195456	11305
bin	0.0003204	11279
bin	0.0003212544	11454
bin	0.0003221088	11318
bin	0.0003229632	11597
bin	0.0003238176	11303
bin	0.000324672	11428
bin	0.0003255264	11466
bin	0.0003263808	11476
bin	0.0003272352	11358
bin	0.0003280896	11564
bin	0.000328944	11358
bin	0.0003297984	11236
bin	0.0003306528	11554
bin	0.0003315072	11333
bin	0.0003323616	11231
bin	0.000333216	11238
bin	0.0003340704	11244
bin	0.0003349248	11334
bin	0.0003357792	11149
bin	0.0003366336	10953
bin	0.000337488	11154
bin	0.0003383424	10864
bin	0.0003391968	10915
bin	0.0003400512	10926
bin	0.0003409056	10834
bin	0.00034176	10700
bin	0.0003426144	10701
bin	0.0003434688	10666
bin	0.0003443232	10754
bin	0.0003451776	10835
bin	0.000346032	10709
bin	0.0003468864	10340
bin	0.0003477408	10384
bin	0.0003485952	10354
bin	0.0003494496	10452
bin	0.000350304	10246
bin	0.0003511584	10320
bin	0.0003520128	10580
bin	0.0003528672	10251
bin	0.0003537216	10317
bin	0.000354576	10369
bin	0.0003554304	10209
bin	0.0003562848	10390
bin	0.0003571392	10289
bin	0.0003579936	10043
bin	0.000358848	10209
bin	0.0003597024	10191
bin	0.0003605568	10093
bin	0.0003614112	10250
bin	0.0003622656	10000
bin	0.00036312	10060
bin	0.0003639744	9951
bin	0.0003648288	9967
bin	0.0003656832	9933
bin	0.0003665376	9841
bin	0.000367392	9835
bin	0.0003682464	9867
bin	0.0003691008	9904
bin	0.0003699552	9746
bin	0.0003708096	9754
bin	0.000371664	9606
bin	0.0003725184	9540
bin	0.0003733728	9518
bin	0.0003742272	9527
bin	0.0003750816	9593
bin	0.000375936	9430
bin	0.0003767904	9485
bin	0.0003776448	9216
bin	0.0003784992	9336
bin	0.0003793536	9189
bin	0.000380208	9311
bin	0.0003810624	9106
bin	0.0003819168	9178
bin	0.0003827712	8973
bin	0.0003836256	9065
bin	0.00038448	8961
bin	0.0003853344	8861
bin	0.0003861888	8671
bin	0.0003870432	8640
bin	0.0003878976	8732
bin	0.000388752	8615
bin	0.0003896064	8529
bin	0.0003904608	8366
bin	0.0003913152	8415
bin	0.0003921696	8284
bin	0.000393024	8159
bin	0.0003938784	8083
bin	0.0003947328	8049
bin	0.0003955872	8079
bin	0.0003964416	8010
bin	0.000397296	7771
bin	0.0003981504	7813
bin	0.0003990048	7673
bin	0.0003998592	7623
bin	0.0004007136	7353
bin	0.000401568	7481
bin	0.0004024224	7357
bin	0.0004032768	7397
bin	0.0004041312	7347
bin	0.0004049856	7235
bin	0.00040584	7273
bin	0.0004066944	7017
bin	0.0004075488	7001
bin	0.0004084032	6879
bin	0.0004092576	6941
bin	0.000410112	6815
bin	0.0004109664	6718
bin	0.0004118208	6702
bin	0.0004126752	6496
bin	0.0004135296	6409
bin	0.000414384	6305
bin	0.0004152384	6186
bin	0.0004160928	6269
bin	0.0004169472	6057
bin	0.0004178016	6132
bin	0.000418656	6010
bin	0.0004195104	5951
bin	0.0004203648	6076
bin	0.0004212192	5976
bin	0.0004220736	5899
bin	0.000422928	5731
bin	0.0004237824	5823
bin	0.0004246368	5634
bin	0.0004254912	5551
bin	0.0004263456	5534
bin	0.0004272	334343
