version 2
run Butterfly-92-20120709-12:22:05-23373
attr alg 0
attr buf 8
attr configname Butterfly
attr datetime 20120709-12:22:05
attr delta 2.4
attr experiment Butterfly
attr ext true
attr inifile altro.ini
attr iterationvars "$buf=8, $ext=true, $ofedge=2, $delta=2.4, $alg=0"
attr iterationvars2 "$buf=8, $ext=true, $ofedge=2, $delta=2.4, $alg=0, $repetition=0"
attr measurement "$buf=8, $ext=true, $ofedge=2, $delta=2.4, $alg=0"
attr network Torus3d_bub
attr ofedge 2
attr processid 23373
attr repetition 0
attr replication #0
attr resultdir altro-results
attr runnumber 92
attr seedset 92

scalar . 	alg 	0
scalar . 	buf 	8
scalar . 	delta 	2.4
scalar . 	ofedge 	2
scalar Torus3d_bub.timer 	#endTime 	0.000942854331939
scalar Torus3d_bub.timer 	#totalHops 	23592960
scalar Torus3d_bub.timer 	#totalPacks 	6291456
scalar Torus3d_bub.timer 	#totalDerouted 	0
scalar Torus3d_bub.timer 	#totalOutFlanked 	0
scalar Torus3d_bub.timer 	#totalCQRed 	0
scalar Torus3d_bub.timer 	#LB 	0.000786432
scalar Torus3d_bub.timer 	#ratio 	0.83409703212869
statistic Torus3d_bub.timer 	"Hop Times"
field count 6291456
field mean 9.9497638934441e-05
field stddev 0.00010059674481828
field sum 625.98501745992
field sqrsum 0.12595170029441
field min 5.94666666e-07
field max 0.000618435331939
bin	-INF	0
bin	0	0
bin	7.12e-08	0
bin	1.424e-07	0
bin	2.136e-07	0
bin	2.848e-07	0
bin	3.56e-07	0
bin	4.272e-07	0
bin	4.984e-07	0
bin	5.696e-07	2048
bin	6.408e-07	0
bin	7.12e-07	8192
bin	7.832e-07	0
bin	8.544e-07	0
bin	9.256e-07	4096
bin	9.968e-07	2048
bin	1.068e-06	2048
bin	1.1392e-06	0
bin	1.2104e-06	6144
bin	1.2816e-06	1024
bin	1.3528e-06	3072
bin	1.424e-06	1024
bin	1.4952e-06	6656
bin	1.5664e-06	1536
bin	1.6376e-06	1024
bin	1.7088e-06	5632
bin	1.78e-06	5120
bin	1.8512e-06	3072
bin	1.9224e-06	3584
bin	1.9936e-06	10240
bin	2.0648e-06	1536
bin	2.136e-06	4096
bin	2.2072e-06	3584
bin	2.2784e-06	12352
bin	2.3496e-06	2624
bin	2.4208e-06	4160
bin	2.492e-06	9280
bin	2.5632e-06	4672
bin	2.6344e-06	4736
bin	2.7056e-06	4672
bin	2.7768e-06	9536
bin	2.848e-06	2176
bin	2.9192e-06	4352
bin	2.9904e-06	3848
bin	3.0616e-06	8392
bin	3.1328e-06	3264
bin	3.204e-06	3720
bin	3.2752e-06	7056
bin	3.3464e-06	5384
bin	3.4176e-06	2336
bin	3.4888e-06	4456
bin	3.56e-06	8144
bin	3.6312e-06	1936
bin	3.7024e-06	4824
bin	3.7736e-06	3496
bin	3.8448e-06	8152
bin	3.916e-06	1512
bin	3.9872e-06	4784
bin	4.0584e-06	6448
bin	4.1296e-06	4008
bin	4.2008e-06	2280
bin	4.272e-06	3920
bin	4.3432e-06	8328
bin	4.4144e-06	2800
bin	4.4856e-06	4560
bin	4.5568e-06	3480
bin	4.628e-06	9624
bin	4.6992e-06	2824
bin	4.7704e-06	3816
bin	4.8416e-06	6864
bin	4.9128e-06	2840
bin	4.984e-06	2312
bin	5.0552e-06	3320
bin	5.1264e-06	9072
bin	5.1976e-06	1448
bin	5.2688e-06	5112
bin	5.34e-06	1288
bin	5.4112e-06	8104
bin	5.4824e-06	1320
bin	5.5536e-06	3824
bin	5.6248e-06	5400
bin	5.696e-06	3952
bin	5.7672e-06	1704
bin	5.8384e-06	3592
bin	5.9096e-06	8528
bin	5.9808e-06	704
bin	6.052e-06	3752
bin	6.1232e-06	2072
bin	6.1944e-06	7992
bin	6.2656e-06	1320
bin	6.3368e-06	5216
bin	6.408e-06	5352
bin	6.4792e-06	4128
bin	6.5504e-06	2536
bin	6.6216e-06	4512
bin	6.6928e-06	12000
bin	6.764e-06	2312
bin	6.8352e-06	4664
bin	6.9064e-06	2824
bin	6.9776e-06	8936
bin	7.0488e-06	2008
bin	7.12e-06	5368
bin	7.1912e-06	7032
bin	7.2624e-06	4960
bin	7.3336e-06	2488
bin	7.4048e-06	3824
bin	7.476e-06	7296
bin	7.5472e-06	1072
bin	7.6184e-06	1664
bin	7.6896e-06	1664
bin	7.7608e-06	5912
bin	7.832e-06	1912
bin	7.9032e-06	2016
bin	7.9744e-06	7040
bin	8.0456e-06	2104
bin	8.1168e-06	2400
bin	8.188e-06	2336
bin	8.2592e-06	9088
bin	8.3304e-06	2104
bin	8.4016e-06	3904
bin	8.4728e-06	3720
bin	8.544e-06	6528
bin	8.6152e-06	2136
bin	8.6864e-06	1808
bin	8.7576e-06	7344
bin	8.8288e-06	1536
bin	8.9e-06	1920
bin	8.9712e-06	1448
bin	9.0424e-06	6440
bin	9.1136e-06	1848
bin	9.1848e-06	3264
bin	9.256e-06	2800
bin	9.3272e-06	7048
bin	9.3984e-06	2728
bin	9.4696e-06	3944
bin	9.5408e-06	10072
bin	9.612e-06	4672
bin	9.6832e-06	4584
bin	9.7544e-06	1672
bin	9.8256e-06	7736
bin	9.8968e-06	1472
bin	9.968e-06	1944
bin	1.00392e-05	2544
bin	1.01104e-05	6392
bin	1.01816e-05	2144
bin	1.02528e-05	2424
bin	1.0324e-05	8328
bin	1.03952e-05	2472
bin	1.04664e-05	2800
bin	1.05376e-05	2896
bin	1.06088e-05	6968
bin	1.068e-05	2416
bin	1.07512e-05	2248
bin	1.08224e-05	6104
bin	1.08936e-05	7592
bin	1.09648e-05	3728
bin	1.1036e-05	1680
bin	1.11072e-05	7248
bin	1.11784e-05	4416
bin	1.12496e-05	3240
bin	1.13208e-05	4472
bin	1.1392e-05	2624
bin	1.14632e-05	4768
bin	1.15344e-05	2824
bin	1.16056e-05	6240
bin	1.16768e-05	2872
bin	1.1748e-05	4328
bin	1.18192e-05	2104
bin	1.18904e-05	5376
bin	1.19616e-05	3592
bin	1.20328e-05	3824
bin	1.2104e-05	3024
bin	1.21752e-05	5960
bin	1.22464e-05	3616
bin	1.23176e-05	2904
bin	1.23888e-05	5208
bin	1.246e-05	3184
bin	1.25312e-05	3680
bin	1.26024e-05	2144
bin	1.26736e-05	6120
bin	1.27448e-05	2792
bin	1.2816e-05	2488
bin	1.28872e-05	3024
bin	1.29584e-05	4648
bin	1.30296e-05	2864
bin	1.31008e-05	1984
bin	1.3172e-05	3800
bin	1.32432e-05	4104
bin	1.33144e-05	3424
bin	1.33856e-05	3120
bin	1.34568e-05	6208
bin	1.3528e-05	3728
bin	1.35992e-05	2744
bin	1.36704e-05	4248
bin	1.37416e-05	5000
bin	1.38128e-05	3840
bin	1.3884e-05	3096
bin	1.39552e-05	5144
bin	1.40264e-05	2968
bin	1.40976e-05	4448
bin	1.41688e-05	3336
bin	1.424e-05	4704
bin	1.43112e-05	4616
bin	1.43824e-05	3936
bin	1.44536e-05	4664
bin	1.45248e-05	4096
bin	1.4596e-05	4912
bin	1.46672e-05	3056
bin	1.47384e-05	4368
bin	1.48096e-05	2384
bin	1.48808e-05	3816
bin	1.4952e-05	2416
bin	1.50232e-05	3248
bin	1.50944e-05	4792
bin	1.51656e-05	2176
bin	1.52368e-05	2544
bin	1.5308e-05	1760
bin	1.53792e-05	1808
bin	1.54504e-05	2168
bin	1.55216e-05	3704
bin	1.55928e-05	2552
bin	1.5664e-05	2808
bin	1.57352e-05	1632
bin	1.58064e-05	2416
bin	1.58776e-05	2192
bin	1.59488e-05	1920
bin	1.602e-05	1800
bin	1.60912e-05	2144
bin	1.61624e-05	3984
bin	1.62336e-05	2992
bin	1.63048e-05	5440
bin	1.6376e-05	2656
bin	1.64472e-05	3976
bin	1.65184e-05	4632
bin	1.65896e-05	3640
bin	1.66608e-05	4296
bin	1.6732e-05	3640
bin	1.68032e-05	5600
bin	1.68744e-05	4344
bin	1.69456e-05	4272
bin	1.70168e-05	3392
bin	1.7088e-05	4080
bin	1.71592e-05	3736
bin	1.72304e-05	3840
bin	1.73016e-05	3912
bin	1.73728e-05	3264
bin	1.7444e-05	4024
bin	1.75152e-05	3984
bin	1.75864e-05	4624
bin	1.76576e-05	3824
bin	1.77288e-05	4896
bin	1.78e-05	2304
bin	1.78712e-05	4960
bin	1.79424e-05	2552
bin	1.80136e-05	4832
bin	1.80848e-05	3728
bin	1.8156e-05	3600
bin	1.82272e-05	3648
bin	1.82984e-05	2984
bin	1.83696e-05	4264
bin	1.84408e-05	3456
bin	1.8512e-05	4096
bin	1.85832e-05	2800
bin	1.86544e-05	3856
bin	1.87256e-05	3536
bin	1.87968e-05	4304
bin	1.8868e-05	3648
bin	1.89392e-05	2896
bin	1.90104e-05	2720
bin	1.90816e-05	3024
bin	1.91528e-05	3576
bin	1.9224e-05	3408
bin	1.92952e-05	2976
bin	1.93664e-05	2912
bin	1.94376e-05	2864
bin	1.95088e-05	3240
bin	1.958e-05	3520
bin	1.96512e-05	3008
bin	1.97224e-05	3280
bin	1.97936e-05	3000
bin	1.98648e-05	3184
bin	1.9936e-05	2952
bin	2.00072e-05	3352
bin	2.00784e-05	3216
bin	2.01496e-05	2968
bin	2.02208e-05	2976
bin	2.0292e-05	3088
bin	2.03632e-05	3688
bin	2.04344e-05	3368
bin	2.05056e-05	3296
bin	2.05768e-05	3256
bin	2.0648e-05	3120
bin	2.07192e-05	3624
bin	2.07904e-05	3072
bin	2.08616e-05	3512
bin	2.09328e-05	3120
bin	2.1004e-05	2960
bin	2.10752e-05	3328
bin	2.11464e-05	3688
bin	2.12176e-05	3152
bin	2.12888e-05	3120
bin	2.136e-05	3104
bin	2.14312e-05	3016
bin	2.15024e-05	2944
bin	2.15736e-05	2920
bin	2.16448e-05	2536
bin	2.1716e-05	2824
bin	2.17872e-05	3552
bin	2.18584e-05	3224
bin	2.19296e-05	2528
bin	2.20008e-05	2904
bin	2.2072e-05	2720
bin	2.21432e-05	2784
bin	2.22144e-05	3216
bin	2.22856e-05	2960
bin	2.23568e-05	3120
bin	2.2428e-05	3280
bin	2.24992e-05	3208
bin	2.25704e-05	3376
bin	2.26416e-05	3160
bin	2.27128e-05	2976
bin	2.2784e-05	3224
bin	2.28552e-05	3144
bin	2.29264e-05	3864
bin	2.29976e-05	3144
bin	2.30688e-05	3360
bin	2.314e-05	3296
bin	2.32112e-05	3272
bin	2.32824e-05	3080
bin	2.33536e-05	4048
bin	2.34248e-05	3064
bin	2.3496e-05	4064
bin	2.35672e-05	3952
bin	2.36384e-05	3336
bin	2.37096e-05	3096
bin	2.37808e-05	4328
bin	2.3852e-05	4032
bin	2.39232e-05	3160
bin	2.39944e-05	3096
bin	2.40656e-05	3816
bin	2.41368e-05	3824
bin	2.4208e-05	3456
bin	2.42792e-05	3696
bin	2.43504e-05	4104
bin	2.44216e-05	3664
bin	2.44928e-05	3688
bin	2.4564e-05	3784
bin	2.46352e-05	2728
bin	2.47064e-05	3360
bin	2.47776e-05	2864
bin	2.48488e-05	4432
bin	2.492e-05	2864
bin	2.49912e-05	3360
bin	2.50624e-05	4368
bin	2.51336e-05	3848
bin	2.52048e-05	3672
bin	2.5276e-05	4112
bin	2.53472e-05	4376
bin	2.54184e-05	4504
bin	2.54896e-05	3416
bin	2.55608e-05	4432
bin	2.5632e-05	3920
bin	2.57032e-05	3648
bin	2.57744e-05	3632
bin	2.58456e-05	4560
bin	2.59168e-05	3600
bin	2.5988e-05	3304
bin	2.60592e-05	4024
bin	2.61304e-05	5016
bin	2.62016e-05	3704
bin	2.62728e-05	3904
bin	2.6344e-05	4712
bin	2.64152e-05	5072
bin	2.64864e-05	4952
bin	2.65576e-05	4008
bin	2.66288e-05	3856
bin	2.67e-05	4112
bin	2.67712e-05	4192
bin	2.68424e-05	4120
bin	2.69136e-05	4416
bin	2.69848e-05	4208
bin	2.7056e-05	4392
bin	2.71272e-05	4208
bin	2.71984e-05	4376
bin	2.72696e-05	3856
bin	2.73408e-05	3888
bin	2.7412e-05	4936
bin	2.74832e-05	3976
bin	2.75544e-05	3736
bin	2.76256e-05	4008
bin	2.76968e-05	4304
bin	2.7768e-05	3376
bin	2.78392e-05	4008
bin	2.79104e-05	3248
bin	2.79816e-05	4776
bin	2.80528e-05	3960
bin	2.8124e-05	3912
bin	2.81952e-05	4272
bin	2.82664e-05	4152
bin	2.83376e-05	3848
bin	2.84088e-05	3864
bin	2.848e-05	4792
bin	2.85512e-05	3728
bin	2.86224e-05	4032
bin	2.86936e-05	4040
bin	2.87648e-05	4712
bin	2.8836e-05	3248
bin	2.89072e-05	3688
bin	2.89784e-05	3784
bin	2.90496e-05	3432
bin	2.91208e-05	3592
bin	2.9192e-05	3256
bin	2.92632e-05	4408
bin	2.93344e-05	4008
bin	2.94056e-05	3920
bin	2.94768e-05	4024
bin	2.9548e-05	4928
bin	2.96192e-05	3960
bin	2.96904e-05	3752
bin	2.97616e-05	5784
bin	2.98328e-05	3840
bin	2.9904e-05	4352
bin	2.99752e-05	5056
bin	3.00464e-05	4696
bin	3.01176e-05	3872
bin	3.01888e-05	3912
bin	3.026e-05	4968
bin	3.03312e-05	4848
bin	3.04024e-05	3544
bin	3.04736e-05	3800
bin	3.05448e-05	5312
bin	3.0616e-05	3688
bin	3.06872e-05	3408
bin	3.07584e-05	4864
bin	3.08296e-05	4352
bin	3.09008e-05	3992
bin	3.0972e-05	3032
bin	3.10432e-05	5656
bin	3.11144e-05	4448
bin	3.11856e-05	3472
bin	3.12568e-05	3664
bin	3.1328e-05	5528
bin	3.13992e-05	3456
bin	3.14704e-05	3776
bin	3.15416e-05	5424
bin	3.16128e-05	4192
bin	3.1684e-05	3784
bin	3.17552e-05	4088
bin	3.18264e-05	3552
bin	3.18976e-05	3872
bin	3.19688e-05	3792
bin	3.204e-05	4464
bin	3.21112e-05	5208
bin	3.21824e-05	4560
bin	3.22536e-05	3752
bin	3.23248e-05	3944
bin	3.2396e-05	5104
bin	3.24672e-05	3968
bin	3.25384e-05	4248
bin	3.26096e-05	3704
bin	3.26808e-05	4920
bin	3.2752e-05	4672
bin	3.28232e-05	4528
bin	3.28944e-05	4392
bin	3.29656e-05	3696
bin	3.30368e-05	4160
bin	3.3108e-05	3808
bin	3.31792e-05	5640
bin	3.32504e-05	3792
bin	3.33216e-05	4656
bin	3.33928e-05	4464
bin	3.3464e-05	4712
bin	3.35352e-05	4376
bin	3.36064e-05	4096
bin	3.36776e-05	5776
bin	3.37488e-05	4272
bin	3.382e-05	4304
bin	3.38912e-05	4520
bin	3.39624e-05	5136
bin	3.40336e-05	5024
bin	3.41048e-05	5104
bin	3.4176e-05	4520
bin	3.42472e-05	5064
bin	3.43184e-05	4736
bin	3.43896e-05	4352
bin	3.44608e-05	5144
bin	3.4532e-05	4320
bin	3.46032e-05	4696
bin	3.46744e-05	4784
bin	3.47456e-05	4952
bin	3.48168e-05	4016
bin	3.4888e-05	4000
bin	3.49592e-05	4200
bin	3.50304e-05	4352
bin	3.51016e-05	4400
bin	3.51728e-05	3784
bin	3.5244e-05	4224
bin	3.53152e-05	3808
bin	3.53864e-05	4480
bin	3.54576e-05	3992
bin	3.55288e-05	4472
bin	3.56e-05	4359688
statistic Torus3d_bub.timer 	"Life Times"
field count 6291456
field mean 0.00022296071274994
field stddev 0.00012967796239795
field sum 1402.7475139949
field sqrsum 0.41855704538286
field min 7.33333333e-07
field max 0.000635631331939
bin	-INF	0
bin	0	4096
bin	8.544e-07	18432
bin	1.7088e-06	22528
bin	2.5632e-06	14336
bin	3.4176e-06	20480
bin	4.272e-06	22528
bin	5.1264e-06	29696
bin	5.9808e-06	23040
bin	6.8352e-06	24832
bin	7.6896e-06	25344
bin	8.544e-06	34560
bin	9.3984e-06	27136
bin	1.02528e-05	27392
bin	1.11072e-05	20224
bin	1.19616e-05	17600
bin	1.2816e-05	18976
bin	1.36704e-05	15456
bin	1.45248e-05	13024
bin	1.53792e-05	8000
bin	1.62336e-05	8032
bin	1.7088e-05	5600
bin	1.79424e-05	7832
bin	1.87968e-05	3912
bin	1.96512e-05	3072
bin	2.05056e-05	4624
bin	2.136e-05	4600
bin	2.22144e-05	8240
bin	2.30688e-05	7968
bin	2.39232e-05	10520
bin	2.47776e-05	12592
bin	2.5632e-05	9712
bin	2.64864e-05	11976
bin	2.73408e-05	12664
bin	2.81952e-05	13336
bin	2.90496e-05	12872
bin	2.9904e-05	14920
bin	3.07584e-05	13576
bin	3.16128e-05	10952
bin	3.24672e-05	10696
bin	3.33216e-05	9656
bin	3.4176e-05	7808
bin	3.50304e-05	10184
bin	3.58848e-05	10672
bin	3.67392e-05	10768
bin	3.75936e-05	8968
bin	3.8448e-05	6856
bin	3.93024e-05	5864
bin	4.01568e-05	4448
bin	4.10112e-05	5064
bin	4.18656e-05	5000
bin	4.272e-05	4176
bin	4.35744e-05	4224
bin	4.44288e-05	3960
bin	4.52832e-05	3376
bin	4.61376e-05	4928
bin	4.6992e-05	4648
bin	4.78464e-05	4232
bin	4.87008e-05	4592
bin	4.95552e-05	5768
bin	5.04096e-05	5864
bin	5.1264e-05	5568
bin	5.21184e-05	6176
bin	5.29728e-05	6968
bin	5.38272e-05	4840
bin	5.46816e-05	4784
bin	5.5536e-05	3128
bin	5.63904e-05	3552
bin	5.72448e-05	5520
bin	5.80992e-05	6616
bin	5.89536e-05	5616
bin	5.9808e-05	6368
bin	6.06624e-05	6616
bin	6.15168e-05	7712
bin	6.23712e-05	6856
bin	6.32256e-05	6376
bin	6.408e-05	7168
bin	6.49344e-05	6960
bin	6.57888e-05	8664
bin	6.66432e-05	8928
bin	6.74976e-05	11648
bin	6.8352e-05	10528
bin	6.92064e-05	7728
bin	7.00608e-05	8048
bin	7.09152e-05	7960
bin	7.17696e-05	11328
bin	7.2624e-05	11240
bin	7.34784e-05	12672
bin	7.43328e-05	12816
bin	7.51872e-05	15320
bin	7.60416e-05	16392
bin	7.6896e-05	16496
bin	7.77504e-05	15784
bin	7.86048e-05	12624
bin	7.94592e-05	11504
bin	8.03136e-05	14352
bin	8.1168e-05	14928
bin	8.20224e-05	12976
bin	8.28768e-05	12968
bin	8.37312e-05	14112
bin	8.45856e-05	12944
bin	8.544e-05	13048
bin	8.62944e-05	13712
bin	8.71488e-05	13696
bin	8.80032e-05	8856
bin	8.88576e-05	12352
bin	8.9712e-05	11456
bin	9.05664e-05	10888
bin	9.14208e-05	11232
bin	9.22752e-05	10712
bin	9.31296e-05	10776
bin	9.3984e-05	10728
bin	9.48384e-05	10816
bin	9.56928e-05	9040
bin	9.65472e-05	8984
bin	9.74016e-05	11376
bin	9.8256e-05	9872
bin	9.91104e-05	9344
bin	9.99648e-05	10192
bin	0.0001008192	10376
bin	0.0001016736	8752
bin	0.000102528	7976
bin	0.0001033824	10968
bin	0.0001042368	12640
bin	0.0001050912	11456
bin	0.0001059456	11336
bin	0.0001068	13912
bin	0.0001076544	13016
bin	0.0001085088	13632
bin	0.0001093632	13264
bin	0.0001102176	12408
bin	0.000111072	13240
bin	0.0001119264	13744
bin	0.0001127808	12896
bin	0.0001136352	12288
bin	0.0001144896	12144
bin	0.000115344	10376
bin	0.0001161984	9984
bin	0.0001170528	9768
bin	0.0001179072	9432
bin	0.0001187616	8424
bin	0.000119616	7352
bin	0.0001204704	7984
bin	0.0001213248	7640
bin	0.0001221792	7600
bin	0.0001230336	7760
bin	0.000123888	8312
bin	0.0001247424	8312
bin	0.0001255968	8552
bin	0.0001264512	9080
bin	0.0001273056	8840
bin	0.00012816	12072
bin	0.0001290144	12640
bin	0.0001298688	14264
bin	0.0001307232	14176
bin	0.0001315776	15832
bin	0.000132432	17160
bin	0.0001332864	16792
bin	0.0001341408	16848
bin	0.0001349952	19704
bin	0.0001358496	18648
bin	0.000136704	17672
bin	0.0001375584	18656
bin	0.0001384128	19400
bin	0.0001392672	17304
bin	0.0001401216	16376
bin	0.000140976	17224
bin	0.0001418304	15112
bin	0.0001426848	14064
bin	0.0001435392	14000
bin	0.0001443936	14184
bin	0.000145248	12008
bin	0.0001461024	11888
bin	0.0001469568	11944
bin	0.0001478112	12032
bin	0.0001486656	12128
bin	0.00014952	11936
bin	0.0001503744	12760
bin	0.0001512288	14024
bin	0.0001520832	14320
bin	0.0001529376	13984
bin	0.000153792	13632
bin	0.0001546464	13968
bin	0.0001555008	13464
bin	0.0001563552	13488
bin	0.0001572096	14128
bin	0.000158064	13960
bin	0.0001589184	13016
bin	0.0001597728	13096
bin	0.0001606272	13160
bin	0.0001614816	12704
bin	0.000162336	12424
bin	0.0001631904	12608
bin	0.0001640448	12272
bin	0.0001648992	12640
bin	0.0001657536	11632
bin	0.000166608	12136
bin	0.0001674624	11984
bin	0.0001683168	12120
bin	0.0001691712	12248
bin	0.0001700256	12392
bin	0.00017088	12848
bin	0.0001717344	12512
bin	0.0001725888	11872
bin	0.0001734432	11904
bin	0.0001742976	13328
bin	0.000175152	12608
bin	0.0001760064	12928
bin	0.0001768608	13232
bin	0.0001777152	13712
bin	0.0001785696	13072
bin	0.000179424	13048
bin	0.0001802784	14000
bin	0.0001811328	12672
bin	0.0001819872	12488
bin	0.0001828416	12584
bin	0.000183696	12952
bin	0.0001845504	12520
bin	0.0001854048	13408
bin	0.0001862592	12880
bin	0.0001871136	13192
bin	0.000187968	13232
bin	0.0001888224	13344
bin	0.0001896768	13040
bin	0.0001905312	12880
bin	0.0001913856	12992
bin	0.00019224	12656
bin	0.0001930944	13304
bin	0.0001939488	13416
bin	0.0001948032	13696
bin	0.0001956576	14496
bin	0.000196512	13888
bin	0.0001973664	13320
bin	0.0001982208	13584
bin	0.0001990752	14632
bin	0.0001999296	14808
bin	0.000200784	15040
bin	0.0002016384	15800
bin	0.0002024928	15680
bin	0.0002033472	16032
bin	0.0002042016	16264
bin	0.000205056	16080
bin	0.0002059104	16040
bin	0.0002067648	15904
bin	0.0002076192	15824
bin	0.0002084736	15760
bin	0.000209328	15952
bin	0.0002101824	15608
bin	0.0002110368	15744
bin	0.0002118912	15824
bin	0.0002127456	15488
bin	0.0002136	15528
bin	0.0002144544	15264
bin	0.0002153088	14792
bin	0.0002161632	14488
bin	0.0002170176	14704
bin	0.000217872	15008
bin	0.0002187264	14624
bin	0.0002195808	14088
bin	0.0002204352	14592
bin	0.0002212896	14232
bin	0.000222144	14280
bin	0.0002229984	13920
bin	0.0002238528	13600
bin	0.0002247072	13648
bin	0.0002255616	13704
bin	0.000226416	13872
bin	0.0002272704	14384
bin	0.0002281248	14296
bin	0.0002289792	14472
bin	0.0002298336	14304
bin	0.000230688	14744
bin	0.0002315424	15696
bin	0.0002323968	14992
bin	0.0002332512	15176
bin	0.0002341056	15520
bin	0.00023496	15504
bin	0.0002358144	15216
bin	0.0002366688	15264
bin	0.0002375232	14616
bin	0.0002383776	14848
bin	0.000239232	15120
bin	0.0002400864	14792
bin	0.0002409408	14816
bin	0.0002417952	13592
bin	0.0002426496	13352
bin	0.000243504	13192
bin	0.0002443584	13288
bin	0.0002452128	12808
bin	0.0002460672	12824
bin	0.0002469216	13464
bin	0.000247776	13912
bin	0.0002486304	14096
bin	0.0002494848	13872
bin	0.0002503392	13872
bin	0.0002511936	14408
bin	0.000252048	14168
bin	0.0002529024	13936
bin	0.0002537568	14320
bin	0.0002546112	14304
bin	0.0002554656	13880
bin	0.00025632	14384
bin	0.0002571744	14880
bin	0.0002580288	14288
bin	0.0002588832	13880
bin	0.0002597376	13688
bin	0.000260592	13560
bin	0.0002614464	13392
bin	0.0002623008	13904
bin	0.0002631552	13928
bin	0.0002640096	13448
bin	0.000264864	13936
bin	0.0002657184	14632
bin	0.0002665728	14248
bin	0.0002674272	13928
bin	0.0002682816	14040
bin	0.000269136	14256
bin	0.0002699904	13960
bin	0.0002708448	14336
bin	0.0002716992	14904
bin	0.0002725536	14520
bin	0.000273408	14480
bin	0.0002742624	15152
bin	0.0002751168	15240
bin	0.0002759712	14936
bin	0.0002768256	15352
bin	0.00027768	14776
bin	0.0002785344	15120
bin	0.0002793888	15312
bin	0.0002802432	14992
bin	0.0002810976	14800
bin	0.000281952	14656
bin	0.0002828064	15016
bin	0.0002836608	14736
bin	0.0002845152	15008
bin	0.0002853696	15016
bin	0.000286224	14144
bin	0.0002870784	13576
bin	0.0002879328	13944
bin	0.0002887872	14000
bin	0.0002896416	13520
bin	0.000290496	13752
bin	0.0002913504	14232
bin	0.0002922048	13680
bin	0.0002930592	13624
bin	0.0002939136	13448
bin	0.000294768	13440
bin	0.0002956224	12960
bin	0.0002964768	13000
bin	0.0002973312	13032
bin	0.0002981856	13176
bin	0.00029904	13592
bin	0.0002998944	13480
bin	0.0003007488	12664
bin	0.0003016032	12696
bin	0.0003024576	12576
bin	0.000303312	12672
bin	0.0003041664	12640
bin	0.0003050208	12416
bin	0.0003058752	12592
bin	0.0003067296	12840
bin	0.000307584	13256
bin	0.0003084384	12760
bin	0.0003092928	12512
bin	0.0003101472	12136
bin	0.0003110016	12512
bin	0.000311856	11824
bin	0.0003127104	12064
bin	0.0003135648	11928
bin	0.0003144192	11304
bin	0.0003152736	11616
bin	0.000316128	11568
bin	0.0003169824	11592
bin	0.0003178368	11744
bin	0.0003186912	11496
bin	0.0003195456	11872
bin	0.0003204	11848
bin	0.0003212544	11528
bin	0.0003221088	12048
bin	0.0003229632	12040
bin	0.0003238176	11976
bin	0.000324672	12096
bin	0.0003255264	12024
bin	0.0003263808	11944
bin	0.0003272352	12448
bin	0.0003280896	12648
bin	0.000328944	12728
bin	0.0003297984	12480
bin	0.0003306528	12744
bin	0.0003315072	12208
bin	0.0003323616	12024
bin	0.000333216	11848
bin	0.0003340704	11872
bin	0.0003349248	11992
bin	0.0003357792	12192
bin	0.0003366336	12272
bin	0.000337488	11648
bin	0.0003383424	11840
bin	0.0003391968	11872
bin	0.0003400512	11840
bin	0.0003409056	11976
bin	0.00034176	11792
bin	0.0003426144	11744
bin	0.0003434688	11544
bin	0.0003443232	11424
bin	0.0003451776	11160
bin	0.000346032	11488
bin	0.0003468864	10584
bin	0.0003477408	10352
bin	0.0003485952	10560
bin	0.0003494496	10552
bin	0.000350304	10216
bin	0.0003511584	10192
bin	0.0003520128	10144
bin	0.0003528672	9864
bin	0.0003537216	10176
bin	0.000354576	10384
bin	0.0003554304	10448
bin	0.0003562848	10400
bin	0.0003571392	10528
bin	0.0003579936	10552
bin	0.000358848	10416
bin	0.0003597024	10800
bin	0.0003605568	10320
bin	0.0003614112	10704
bin	0.0003622656	10784
bin	0.00036312	9800
bin	0.0003639744	9944
bin	0.0003648288	9840
bin	0.0003656832	9304
bin	0.0003665376	9688
bin	0.000367392	9568
bin	0.0003682464	9640
bin	0.0003691008	9328
bin	0.0003699552	9272
bin	0.0003708096	9184
bin	0.000371664	9088
bin	0.0003725184	9144
bin	0.0003733728	8528
bin	0.0003742272	8552
bin	0.0003750816	8392
bin	0.000375936	8136
bin	0.0003767904	8440
bin	0.0003776448	8032
bin	0.0003784992	8104
bin	0.0003793536	7912
bin	0.000380208	8072
bin	0.0003810624	7704
bin	0.0003819168	7736
bin	0.0003827712	7576
bin	0.0003836256	7280
bin	0.00038448	7752
bin	0.0003853344	8000
bin	0.0003861888	8072
bin	0.0003870432	8232
bin	0.0003878976	8288
bin	0.000388752	8144
bin	0.0003896064	7920
bin	0.0003904608	8024
bin	0.0003913152	8256
bin	0.0003921696	8064
bin	0.000393024	7768
bin	0.0003938784	8072
bin	0.0003947328	7784
bin	0.0003955872	8112
bin	0.0003964416	8008
bin	0.000397296	7440
bin	0.0003981504	7256
bin	0.0003990048	7120
bin	0.0003998592	7464
bin	0.0004007136	7128
bin	0.000401568	7528
bin	0.0004024224	7416
bin	0.0004032768	7048
bin	0.0004041312	7016
bin	0.0004049856	6904
bin	0.00040584	7176
bin	0.0004066944	7032
bin	0.0004075488	7032
bin	0.0004084032	7056
bin	0.0004092576	7160
bin	0.000410112	6864
bin	0.0004109664	7088
bin	0.0004118208	6760
bin	0.0004126752	6384
bin	0.0004135296	6472
bin	0.000414384	6096
bin	0.0004152384	5808
bin	0.0004160928	5960
bin	0.0004169472	6216
bin	0.0004178016	5704
bin	0.000418656	5912
bin	0.0004195104	6024
bin	0.0004203648	5616
bin	0.0004212192	5720
bin	0.0004220736	5528
bin	0.000422928	5424
bin	0.0004237824	5672
bin	0.0004246368	5528
bin	0.0004254912	5496
bin	0.0004263456	5656
bin	0.0004272	395680
