version 2
run Butterfly-21-20120709-10:43:08-22760
attr alg 1
attr buf 8
attr configname Butterfly
attr datetime 20120709-10:43:08
attr delta 1.2
attr experiment Butterfly
attr ext true
attr inifile altro.ini
attr iterationvars "$buf=8, $ext=true, $ofedge=1, $delta=1.2, $alg=1"
attr iterationvars2 "$buf=8, $ext=true, $ofedge=1, $delta=1.2, $alg=1, $repetition=0"
attr measurement "$buf=8, $ext=true, $ofedge=1, $delta=1.2, $alg=1"
attr network Torus3d_bub
attr ofedge 1
attr processid 22760
attr repetition 0
attr replication #0
attr resultdir altro-results
attr runnumber 21
attr seedset 21

scalar . 	alg 	1
scalar . 	buf 	8
scalar . 	delta 	1.2
scalar . 	ofedge 	1
scalar Torus3d_bub.timer 	#endTime 	0.000933594998564
scalar Torus3d_bub.timer 	#totalHops 	35661538
scalar Torus3d_bub.timer 	#totalPacks 	6291456
scalar Torus3d_bub.timer 	#totalDerouted 	4263067
scalar Torus3d_bub.timer 	#totalOutFlanked 	4263067
scalar Torus3d_bub.timer 	#totalCQRed 	0
scalar Torus3d_bub.timer 	#LB 	0.000786432
scalar Torus3d_bub.timer 	#ratio 	0.84236955126114
statistic Torus3d_bub.timer 	"Hop Times"
field count 6291456
field mean 1.784770147611e-05
field stddev 2.5058077777243e-05
field sum 112.28802853808
field sqrsum 0.005954533495045
field min 4.24444372e-07
field max 0.00048592099905
bin	-INF	0
bin	0	0
bin	7.12e-08	0
bin	1.424e-07	0
bin	2.136e-07	0
bin	2.848e-07	0
bin	3.56e-07	1
bin	4.272e-07	178
bin	4.984e-07	3710
bin	5.696e-07	4246
bin	6.408e-07	4928
bin	7.12e-07	9079
bin	7.832e-07	4303
bin	8.544e-07	8355
bin	9.256e-07	14431
bin	9.968e-07	13010
bin	1.068e-06	12947
bin	1.1392e-06	19356
bin	1.2104e-06	19524
bin	1.2816e-06	20785
bin	1.3528e-06	21038
bin	1.424e-06	17965
bin	1.4952e-06	25863
bin	1.5664e-06	18937
bin	1.6376e-06	20167
bin	1.7088e-06	26874
bin	1.78e-06	24169
bin	1.8512e-06	28243
bin	1.9224e-06	29332
bin	1.9936e-06	30522
bin	2.0648e-06	33021
bin	2.136e-06	28742
bin	2.2072e-06	30694
bin	2.2784e-06	40500
bin	2.3496e-06	33481
bin	2.4208e-06	36201
bin	2.492e-06	37626
bin	2.5632e-06	33986
bin	2.6344e-06	35947
bin	2.7056e-06	35438
bin	2.7768e-06	38095
bin	2.848e-06	34247
bin	2.9192e-06	33557
bin	2.9904e-06	31051
bin	3.0616e-06	38906
bin	3.1328e-06	31763
bin	3.204e-06	35200
bin	3.2752e-06	37377
bin	3.3464e-06	27714
bin	3.4176e-06	28699
bin	3.4888e-06	30689
bin	3.56e-06	32904
bin	3.6312e-06	25617
bin	3.7024e-06	27505
bin	3.7736e-06	29291
bin	3.8448e-06	30004
bin	3.916e-06	28702
bin	3.9872e-06	27072
bin	4.0584e-06	32450
bin	4.1296e-06	26976
bin	4.2008e-06	26575
bin	4.272e-06	31274
bin	4.3432e-06	29227
bin	4.4144e-06	24698
bin	4.4856e-06	23886
bin	4.5568e-06	23644
bin	4.628e-06	28292
bin	4.6992e-06	22693
bin	4.7704e-06	22624
bin	4.8416e-06	27424
bin	4.9128e-06	22155
bin	4.984e-06	21734
bin	5.0552e-06	24189
bin	5.1264e-06	30823
bin	5.1976e-06	21852
bin	5.2688e-06	25798
bin	5.34e-06	22510
bin	5.4112e-06	27153
bin	5.4824e-06	23181
bin	5.5536e-06	23356
bin	5.6248e-06	27259
bin	5.696e-06	22966
bin	5.7672e-06	22858
bin	5.8384e-06	22279
bin	5.9096e-06	28773
bin	5.9808e-06	20776
bin	6.052e-06	22493
bin	6.1232e-06	20792
bin	6.1944e-06	26173
bin	6.2656e-06	20165
bin	6.3368e-06	19807
bin	6.408e-06	24848
bin	6.4792e-06	19677
bin	6.5504e-06	19306
bin	6.6216e-06	19676
bin	6.6928e-06	24097
bin	6.764e-06	18832
bin	6.8352e-06	18986
bin	6.9064e-06	19023
bin	6.9776e-06	23511
bin	7.0488e-06	18458
bin	7.12e-06	18419
bin	7.1912e-06	23195
bin	7.2624e-06	17754
bin	7.3336e-06	17690
bin	7.4048e-06	17798
bin	7.476e-06	22478
bin	7.5472e-06	17545
bin	7.6184e-06	17261
bin	7.6896e-06	17671
bin	7.7608e-06	22403
bin	7.832e-06	17203
bin	7.9032e-06	17309
bin	7.9744e-06	22426
bin	8.0456e-06	17195
bin	8.1168e-06	16910
bin	8.188e-06	16855
bin	8.2592e-06	17680
bin	8.3304e-06	16915
bin	8.4016e-06	16695
bin	8.4728e-06	16543
bin	8.544e-06	21421
bin	8.6152e-06	16189
bin	8.6864e-06	18116
bin	8.7576e-06	21070
bin	8.8288e-06	17764
bin	8.9e-06	15586
bin	8.9712e-06	17719
bin	9.0424e-06	19980
bin	9.1136e-06	15014
bin	9.1848e-06	17072
bin	9.256e-06	14953
bin	9.3272e-06	21733
bin	9.3984e-06	14684
bin	9.4696e-06	16575
bin	9.5408e-06	15404
bin	9.612e-06	16729
bin	9.6832e-06	14421
bin	9.7544e-06	14845
bin	9.8256e-06	17421
bin	9.8968e-06	14466
bin	9.968e-06	14396
bin	1.00392e-05	14358
bin	1.01104e-05	19623
bin	1.01816e-05	14429
bin	1.02528e-05	14502
bin	1.0324e-05	17356
bin	1.03952e-05	14398
bin	1.04664e-05	14262
bin	1.05376e-05	14313
bin	1.06088e-05	14834
bin	1.068e-05	13885
bin	1.07512e-05	14118
bin	1.08224e-05	14070
bin	1.08936e-05	16610
bin	1.09648e-05	14095
bin	1.1036e-05	14030
bin	1.11072e-05	18788
bin	1.11784e-05	13750
bin	1.12496e-05	13561
bin	1.13208e-05	13804
bin	1.1392e-05	16151
bin	1.14632e-05	13284
bin	1.15344e-05	13479
bin	1.16056e-05	13358
bin	1.16768e-05	18292
bin	1.1748e-05	13053
bin	1.18192e-05	13217
bin	1.18904e-05	16214
bin	1.19616e-05	13145
bin	1.20328e-05	13406
bin	1.2104e-05	13289
bin	1.21752e-05	17786
bin	1.22464e-05	12854
bin	1.23176e-05	13185
bin	1.23888e-05	13026
bin	1.246e-05	15305
bin	1.25312e-05	12841
bin	1.26024e-05	12719
bin	1.26736e-05	17370
bin	1.27448e-05	12674
bin	1.2816e-05	12892
bin	1.28872e-05	12917
bin	1.29584e-05	15204
bin	1.30296e-05	12656
bin	1.31008e-05	12808
bin	1.3172e-05	12661
bin	1.32432e-05	12831
bin	1.33144e-05	12385
bin	1.33856e-05	12570
bin	1.34568e-05	12863
bin	1.3528e-05	12283
bin	1.35992e-05	12542
bin	1.36704e-05	12578
bin	1.37416e-05	12632
bin	1.38128e-05	12279
bin	1.3884e-05	12445
bin	1.39552e-05	12383
bin	1.40264e-05	12475
bin	1.40976e-05	11734
bin	1.41688e-05	11947
bin	1.424e-05	12292
bin	1.43112e-05	11434
bin	1.43824e-05	11701
bin	1.44536e-05	11631
bin	1.45248e-05	11711
bin	1.4596e-05	11447
bin	1.46672e-05	11568
bin	1.47384e-05	11416
bin	1.48096e-05	11707
bin	1.48808e-05	11260
bin	1.4952e-05	11049
bin	1.50232e-05	11626
bin	1.50944e-05	10986
bin	1.51656e-05	10998
bin	1.52368e-05	11013
bin	1.5308e-05	11026
bin	1.53792e-05	10649
bin	1.54504e-05	10508
bin	1.55216e-05	10593
bin	1.55928e-05	10439
bin	1.5664e-05	10323
bin	1.57352e-05	10130
bin	1.58064e-05	10565
bin	1.58776e-05	10023
bin	1.59488e-05	10186
bin	1.602e-05	10227
bin	1.60912e-05	10214
bin	1.61624e-05	9952
bin	1.62336e-05	10001
bin	1.63048e-05	10017
bin	1.6376e-05	10150
bin	1.64472e-05	9916
bin	1.65184e-05	9701
bin	1.65896e-05	10096
bin	1.66608e-05	9697
bin	1.6732e-05	9733
bin	1.68032e-05	9578
bin	1.68744e-05	9891
bin	1.69456e-05	9589
bin	1.70168e-05	9489
bin	1.7088e-05	9541
bin	1.71592e-05	9503
bin	1.72304e-05	9120
bin	1.73016e-05	9262
bin	1.73728e-05	9419
bin	1.7444e-05	8990
bin	1.75152e-05	9109
bin	1.75864e-05	8988
bin	1.76576e-05	8983
bin	1.77288e-05	8797
bin	1.78e-05	8730
bin	1.78712e-05	8674
bin	1.79424e-05	8742
bin	1.80136e-05	8538
bin	1.80848e-05	8423
bin	1.8156e-05	8847
bin	1.82272e-05	8390
bin	1.82984e-05	8436
bin	1.83696e-05	8344
bin	1.84408e-05	8563
bin	1.8512e-05	8140
bin	1.85832e-05	8322
bin	1.86544e-05	8150
bin	1.87256e-05	8277
bin	1.87968e-05	7903
bin	1.8868e-05	7859
bin	1.89392e-05	8115
bin	1.90104e-05	7814
bin	1.90816e-05	7919
bin	1.91528e-05	7660
bin	1.9224e-05	7803
bin	1.92952e-05	7600
bin	1.93664e-05	7618
bin	1.94376e-05	7749
bin	1.95088e-05	7825
bin	1.958e-05	7511
bin	1.96512e-05	7555
bin	1.97224e-05	7949
bin	1.97936e-05	7405
bin	1.98648e-05	7440
bin	1.9936e-05	7638
bin	2.00072e-05	7694
bin	2.00784e-05	7591
bin	2.01496e-05	7771
bin	2.02208e-05	7626
bin	2.0292e-05	7616
bin	2.03632e-05	7419
bin	2.04344e-05	7410
bin	2.05056e-05	7859
bin	2.05768e-05	7614
bin	2.0648e-05	7240
bin	2.07192e-05	7566
bin	2.07904e-05	7631
bin	2.08616e-05	7472
bin	2.09328e-05	7256
bin	2.1004e-05	7211
bin	2.10752e-05	7131
bin	2.11464e-05	7120
bin	2.12176e-05	6914
bin	2.12888e-05	7252
bin	2.136e-05	6800
bin	2.14312e-05	6701
bin	2.15024e-05	6688
bin	2.15736e-05	6753
bin	2.16448e-05	6697
bin	2.1716e-05	6614
bin	2.17872e-05	6592
bin	2.18584e-05	6733
bin	2.19296e-05	6344
bin	2.20008e-05	6345
bin	2.2072e-05	6624
bin	2.21432e-05	6216
bin	2.22144e-05	6303
bin	2.22856e-05	6233
bin	2.23568e-05	6343
bin	2.2428e-05	6148
bin	2.24992e-05	6170
bin	2.25704e-05	6027
bin	2.26416e-05	6126
bin	2.27128e-05	5957
bin	2.2784e-05	5967
bin	2.28552e-05	6151
bin	2.29264e-05	5809
bin	2.29976e-05	5962
bin	2.30688e-05	5835
bin	2.314e-05	6021
bin	2.32112e-05	5711
bin	2.32824e-05	5743
bin	2.33536e-05	5913
bin	2.34248e-05	5579
bin	2.3496e-05	5629
bin	2.35672e-05	5577
bin	2.36384e-05	5911
bin	2.37096e-05	5459
bin	2.37808e-05	5488
bin	2.3852e-05	5275
bin	2.39232e-05	5624
bin	2.39944e-05	5415
bin	2.40656e-05	5532
bin	2.41368e-05	5569
bin	2.4208e-05	5204
bin	2.42792e-05	5202
bin	2.43504e-05	5245
bin	2.44216e-05	5403
bin	2.44928e-05	5058
bin	2.4564e-05	5142
bin	2.46352e-05	5078
bin	2.47064e-05	5211
bin	2.47776e-05	4986
bin	2.48488e-05	4950
bin	2.492e-05	5100
bin	2.49912e-05	4931
bin	2.50624e-05	4875
bin	2.51336e-05	4996
bin	2.52048e-05	5109
bin	2.5276e-05	4835
bin	2.53472e-05	4812
bin	2.54184e-05	4730
bin	2.54896e-05	4822
bin	2.55608e-05	4690
bin	2.5632e-05	4679
bin	2.57032e-05	4971
bin	2.57744e-05	4651
bin	2.58456e-05	4773
bin	2.59168e-05	4659
bin	2.5988e-05	4867
bin	2.60592e-05	4485
bin	2.61304e-05	4571
bin	2.62016e-05	4500
bin	2.62728e-05	4681
bin	2.6344e-05	4434
bin	2.64152e-05	4468
bin	2.64864e-05	4602
bin	2.65576e-05	4374
bin	2.66288e-05	4214
bin	2.67e-05	4397
bin	2.67712e-05	4422
bin	2.68424e-05	4262
bin	2.69136e-05	4289
bin	2.69848e-05	4148
bin	2.7056e-05	4359
bin	2.71272e-05	4091
bin	2.71984e-05	4170
bin	2.72696e-05	4262
bin	2.73408e-05	4170
bin	2.7412e-05	4001
bin	2.74832e-05	4149
bin	2.75544e-05	4203
bin	2.76256e-05	3960
bin	2.76968e-05	4001
bin	2.7768e-05	4048
bin	2.78392e-05	3997
bin	2.79104e-05	3830
bin	2.79816e-05	4011
bin	2.80528e-05	4005
bin	2.8124e-05	3809
bin	2.81952e-05	3744
bin	2.82664e-05	3856
bin	2.83376e-05	3937
bin	2.84088e-05	3704
bin	2.848e-05	3854
bin	2.85512e-05	3711
bin	2.86224e-05	3766
bin	2.86936e-05	3658
bin	2.87648e-05	3708
bin	2.8836e-05	3789
bin	2.89072e-05	3519
bin	2.89784e-05	3523
bin	2.90496e-05	3657
bin	2.91208e-05	3707
bin	2.9192e-05	3406
bin	2.92632e-05	3446
bin	2.93344e-05	3405
bin	2.94056e-05	3530
bin	2.94768e-05	3432
bin	2.9548e-05	3390
bin	2.96192e-05	3565
bin	2.96904e-05	3313
bin	2.97616e-05	3374
bin	2.98328e-05	3383
bin	2.9904e-05	3500
bin	2.99752e-05	3337
bin	3.00464e-05	3430
bin	3.01176e-05	3385
bin	3.01888e-05	3295
bin	3.026e-05	3303
bin	3.03312e-05	3306
bin	3.04024e-05	3459
bin	3.04736e-05	3167
bin	3.05448e-05	3298
bin	3.0616e-05	3221
bin	3.06872e-05	3350
bin	3.07584e-05	3132
bin	3.08296e-05	3240
bin	3.09008e-05	3039
bin	3.0972e-05	3158
bin	3.10432e-05	3083
bin	3.11144e-05	3160
bin	3.11856e-05	3240
bin	3.12568e-05	3008
bin	3.1328e-05	2900
bin	3.13992e-05	2992
bin	3.14704e-05	3168
bin	3.15416e-05	2898
bin	3.16128e-05	2978
bin	3.1684e-05	2851
bin	3.17552e-05	2914
bin	3.18264e-05	2858
bin	3.18976e-05	2884
bin	3.19688e-05	2992
bin	3.204e-05	2781
bin	3.21112e-05	2840
bin	3.21824e-05	2921
bin	3.22536e-05	2891
bin	3.23248e-05	2874
bin	3.2396e-05	2827
bin	3.24672e-05	2859
bin	3.25384e-05	2855
bin	3.26096e-05	2658
bin	3.26808e-05	2725
bin	3.2752e-05	2766
bin	3.28232e-05	2619
bin	3.28944e-05	2656
bin	3.29656e-05	2654
bin	3.30368e-05	2741
bin	3.3108e-05	2514
bin	3.31792e-05	2634
bin	3.32504e-05	2622
bin	3.33216e-05	2756
bin	3.33928e-05	2530
bin	3.3464e-05	2697
bin	3.35352e-05	2699
bin	3.36064e-05	2477
bin	3.36776e-05	2517
bin	3.37488e-05	2525
bin	3.382e-05	2753
bin	3.38912e-05	2389
bin	3.39624e-05	2502
bin	3.40336e-05	2462
bin	3.41048e-05	2556
bin	3.4176e-05	2469
bin	3.42472e-05	2576
bin	3.43184e-05	2566
bin	3.43896e-05	2463
bin	3.44608e-05	2458
bin	3.4532e-05	2483
bin	3.46032e-05	2622
bin	3.46744e-05	2333
bin	3.47456e-05	2443
bin	3.48168e-05	2422
bin	3.4888e-05	2484
bin	3.49592e-05	2350
bin	3.50304e-05	2320
bin	3.51016e-05	2477
bin	3.51728e-05	2356
bin	3.5244e-05	2326
bin	3.53152e-05	2331
bin	3.53864e-05	2402
bin	3.54576e-05	2269
bin	3.55288e-05	2361
bin	3.56e-05	714387
statistic Torus3d_bub.timer 	"Life Times"
field count 6291456
field mean 7.4607411030653e-05
field stddev 6.2462628425029e-05
field sum 469.38924377327
field sqrsum 0.059566530926397
field min 7.33332437e-07
field max 0.000697796332373
bin	-INF	0
bin	0	6445
bin	8.544e-07	31587
bin	1.7088e-06	47146
bin	2.5632e-06	38933
bin	3.4176e-06	47901
bin	4.272e-06	50713
bin	5.1264e-06	65290
bin	5.9808e-06	54258
bin	6.8352e-06	51568
bin	7.6896e-06	59831
bin	8.544e-06	71430
bin	9.3984e-06	68663
bin	1.02528e-05	62607
bin	1.11072e-05	88537
bin	1.19616e-05	74676
bin	1.2816e-05	67073
bin	1.36704e-05	64542
bin	1.45248e-05	61856
bin	1.53792e-05	66306
bin	1.62336e-05	63084
bin	1.7088e-05	65348
bin	1.79424e-05	67326
bin	1.87968e-05	63114
bin	1.96512e-05	60126
bin	2.05056e-05	68523
bin	2.136e-05	61756
bin	2.22144e-05	61730
bin	2.30688e-05	59061
bin	2.39232e-05	53912
bin	2.47776e-05	49242
bin	2.5632e-05	46885
bin	2.64864e-05	45577
bin	2.73408e-05	43301
bin	2.81952e-05	41263
bin	2.90496e-05	39880
bin	2.9904e-05	39152
bin	3.07584e-05	36722
bin	3.16128e-05	36398
bin	3.24672e-05	35484
bin	3.33216e-05	35984
bin	3.4176e-05	35717
bin	3.50304e-05	36141
bin	3.58848e-05	35945
bin	3.67392e-05	36190
bin	3.75936e-05	36118
bin	3.8448e-05	36841
bin	3.93024e-05	37853
bin	4.01568e-05	38032
bin	4.10112e-05	39474
bin	4.18656e-05	38591
bin	4.272e-05	38339
bin	4.35744e-05	36855
bin	4.44288e-05	36238
bin	4.52832e-05	35490
bin	4.61376e-05	35214
bin	4.6992e-05	34619
bin	4.78464e-05	34088
bin	4.87008e-05	33841
bin	4.95552e-05	33140
bin	5.04096e-05	32700
bin	5.1264e-05	31979
bin	5.21184e-05	31183
bin	5.29728e-05	30597
bin	5.38272e-05	30414
bin	5.46816e-05	31037
bin	5.5536e-05	30742
bin	5.63904e-05	30504
bin	5.72448e-05	30118
bin	5.80992e-05	30839
bin	5.89536e-05	30592
bin	5.9808e-05	31112
bin	6.06624e-05	31115
bin	6.15168e-05	31375
bin	6.23712e-05	31067
bin	6.32256e-05	30587
bin	6.408e-05	30274
bin	6.49344e-05	29888
bin	6.57888e-05	29934
bin	6.66432e-05	29037
bin	6.74976e-05	29003
bin	6.8352e-05	28415
bin	6.92064e-05	28169
bin	7.00608e-05	27958
bin	7.09152e-05	27409
bin	7.17696e-05	27034
bin	7.2624e-05	26820
bin	7.34784e-05	26912
bin	7.43328e-05	26600
bin	7.51872e-05	26677
bin	7.60416e-05	26403
bin	7.6896e-05	26818
bin	7.77504e-05	26809
bin	7.86048e-05	26950
bin	7.94592e-05	27247
bin	8.03136e-05	27438
bin	8.1168e-05	27244
bin	8.20224e-05	27237
bin	8.28768e-05	27801
bin	8.37312e-05	27137
bin	8.45856e-05	27073
bin	8.544e-05	26237
bin	8.62944e-05	26511
bin	8.71488e-05	25575
bin	8.80032e-05	25884
bin	8.88576e-05	25370
bin	8.9712e-05	25357
bin	9.05664e-05	24678
bin	9.14208e-05	24159
bin	9.22752e-05	24178
bin	9.31296e-05	23568
bin	9.3984e-05	23543
bin	9.48384e-05	23417
bin	9.56928e-05	23464
bin	9.65472e-05	23283
bin	9.74016e-05	22934
bin	9.8256e-05	22721
bin	9.91104e-05	22492
bin	9.99648e-05	22446
bin	0.0001008192	22512
bin	0.0001016736	22312
bin	0.000102528	22498
bin	0.0001033824	22379
bin	0.0001042368	22314
bin	0.0001050912	21708
bin	0.0001059456	21545
bin	0.0001068	21031
bin	0.0001076544	21314
bin	0.0001085088	20742
bin	0.0001093632	20457
bin	0.0001102176	19909
bin	0.000111072	19754
bin	0.0001119264	19456
bin	0.0001127808	19231
bin	0.0001136352	18922
bin	0.0001144896	18826
bin	0.000115344	18643
bin	0.0001161984	18493
bin	0.0001170528	18302
bin	0.0001179072	18447
bin	0.0001187616	18346
bin	0.000119616	18308
bin	0.0001204704	17968
bin	0.0001213248	17717
bin	0.0001221792	17726
bin	0.0001230336	17806
bin	0.000123888	17464
bin	0.0001247424	17460
bin	0.0001255968	17321
bin	0.0001264512	16912
bin	0.0001273056	16684
bin	0.00012816	16901
bin	0.0001290144	16723
bin	0.0001298688	16672
bin	0.0001307232	16595
bin	0.0001315776	16060
bin	0.000132432	15951
bin	0.0001332864	15815
bin	0.0001341408	15497
bin	0.0001349952	15330
bin	0.0001358496	15345
bin	0.000136704	15449
bin	0.0001375584	15216
bin	0.0001384128	15370
bin	0.0001392672	15063
bin	0.0001401216	14943
bin	0.000140976	14990
bin	0.0001418304	14866
bin	0.0001426848	14594
bin	0.0001435392	14509
bin	0.0001443936	14621
bin	0.000145248	14355
bin	0.0001461024	14501
bin	0.0001469568	14238
bin	0.0001478112	14046
bin	0.0001486656	13792
bin	0.00014952	13694
bin	0.0001503744	13252
bin	0.0001512288	13031
bin	0.0001520832	12984
bin	0.0001529376	12811
bin	0.000153792	12566
bin	0.0001546464	12441
bin	0.0001555008	12199
bin	0.0001563552	12176
bin	0.0001572096	11914
bin	0.000158064	12003
bin	0.0001589184	11910
bin	0.0001597728	11593
bin	0.0001606272	11515
bin	0.0001614816	11535
bin	0.000162336	11435
bin	0.0001631904	11140
bin	0.0001640448	11187
bin	0.0001648992	10958
bin	0.0001657536	10681
bin	0.000166608	10675
bin	0.0001674624	10500
bin	0.0001683168	10141
bin	0.0001691712	10142
bin	0.0001700256	9932
bin	0.00017088	9597
bin	0.0001717344	9388
bin	0.0001725888	9446
bin	0.0001734432	9285
bin	0.0001742976	8853
bin	0.000175152	8851
bin	0.0001760064	8727
bin	0.0001768608	8480
bin	0.0001777152	8164
bin	0.0001785696	8239
bin	0.000179424	8082
bin	0.0001802784	7891
bin	0.0001811328	7963
bin	0.0001819872	7842
bin	0.0001828416	7779
bin	0.000183696	7598
bin	0.0001845504	7359
bin	0.0001854048	7428
bin	0.0001862592	7407
bin	0.0001871136	7230
bin	0.000187968	6986
bin	0.0001888224	6895
bin	0.0001896768	6901
bin	0.0001905312	6574
bin	0.0001913856	6525
bin	0.00019224	6359
bin	0.0001930944	6187
bin	0.0001939488	6159
bin	0.0001948032	5961
bin	0.0001956576	5708
bin	0.000196512	5645
bin	0.0001973664	5458
bin	0.0001982208	5396
bin	0.0001990752	5163
bin	0.0001999296	5323
bin	0.000200784	5175
bin	0.0002016384	5150
bin	0.0002024928	5066
bin	0.0002033472	5019
bin	0.0002042016	4891
bin	0.000205056	4968
bin	0.0002059104	4900
bin	0.0002067648	4799
bin	0.0002076192	4706
bin	0.0002084736	4661
bin	0.000209328	4488
bin	0.0002101824	4250
bin	0.0002110368	4130
bin	0.0002118912	4073
bin	0.0002127456	3964
bin	0.0002136	3931
bin	0.0002144544	3868
bin	0.0002153088	3794
bin	0.0002161632	3667
bin	0.0002170176	3596
bin	0.000217872	3540
bin	0.0002187264	3477
bin	0.0002195808	3405
bin	0.0002204352	3363
bin	0.0002212896	3312
bin	0.000222144	3294
bin	0.0002229984	3204
bin	0.0002238528	3218
bin	0.0002247072	3158
bin	0.0002255616	3099
bin	0.000226416	3050
bin	0.0002272704	2963
bin	0.0002281248	2918
bin	0.0002289792	2963
bin	0.0002298336	2798
bin	0.000230688	2734
bin	0.0002315424	2681
bin	0.0002323968	2555
bin	0.0002332512	2557
bin	0.0002341056	2500
bin	0.00023496	2485
bin	0.0002358144	2321
bin	0.0002366688	2279
bin	0.0002375232	2244
bin	0.0002383776	2226
bin	0.000239232	2173
bin	0.0002400864	2110
bin	0.0002409408	2063
bin	0.0002417952	1974
bin	0.0002426496	2065
bin	0.000243504	1969
bin	0.0002443584	1912
bin	0.0002452128	1823
bin	0.0002460672	1865
bin	0.0002469216	1837
bin	0.000247776	1869
bin	0.0002486304	1838
bin	0.0002494848	1723
bin	0.0002503392	1667
bin	0.0002511936	1625
bin	0.000252048	1585
bin	0.0002529024	1545
bin	0.0002537568	1548
bin	0.0002546112	1555
bin	0.0002554656	1516
bin	0.00025632	1406
bin	0.0002571744	1331
bin	0.0002580288	1272
bin	0.0002588832	1323
bin	0.0002597376	1260
bin	0.000260592	1269
bin	0.0002614464	1220
bin	0.0002623008	1237
bin	0.0002631552	1218
bin	0.0002640096	1169
bin	0.000264864	1169
bin	0.0002657184	1224
bin	0.0002665728	1137
bin	0.0002674272	1136
bin	0.0002682816	1103
bin	0.000269136	1089
bin	0.0002699904	1116
bin	0.0002708448	1065
bin	0.0002716992	1016
bin	0.0002725536	1031
bin	0.000273408	978
bin	0.0002742624	906
bin	0.0002751168	959
bin	0.0002759712	875
bin	0.0002768256	844
bin	0.00027768	846
bin	0.0002785344	884
bin	0.0002793888	829
bin	0.0002802432	776
bin	0.0002810976	839
bin	0.000281952	831
bin	0.0002828064	776
bin	0.0002836608	745
bin	0.0002845152	772
bin	0.0002853696	762
bin	0.000286224	758
bin	0.0002870784	647
bin	0.0002879328	705
bin	0.0002887872	672
bin	0.0002896416	678
bin	0.000290496	665
bin	0.0002913504	687
bin	0.0002922048	641
bin	0.0002930592	638
bin	0.0002939136	631
bin	0.000294768	602
bin	0.0002956224	598
bin	0.0002964768	612
bin	0.0002973312	589
bin	0.0002981856	607
bin	0.00029904	545
bin	0.0002998944	533
bin	0.0003007488	533
bin	0.0003016032	568
bin	0.0003024576	551
bin	0.000303312	502
bin	0.0003041664	510
bin	0.0003050208	461
bin	0.0003058752	468
bin	0.0003067296	485
bin	0.000307584	432
bin	0.0003084384	429
bin	0.0003092928	438
bin	0.0003101472	434
bin	0.0003110016	456
bin	0.000311856	422
bin	0.0003127104	407
bin	0.0003135648	373
bin	0.0003144192	361
bin	0.0003152736	406
bin	0.000316128	396
bin	0.0003169824	399
bin	0.0003178368	400
bin	0.0003186912	378
bin	0.0003195456	369
bin	0.0003204	375
bin	0.0003212544	350
bin	0.0003221088	352
bin	0.0003229632	375
bin	0.0003238176	367
bin	0.000324672	345
bin	0.0003255264	336
bin	0.0003263808	323
bin	0.0003272352	314
bin	0.0003280896	290
bin	0.000328944	288
bin	0.0003297984	305
bin	0.0003306528	300
bin	0.0003315072	299
bin	0.0003323616	322
bin	0.000333216	273
bin	0.0003340704	299
bin	0.0003349248	251
bin	0.0003357792	254
bin	0.0003366336	237
bin	0.000337488	242
bin	0.0003383424	243
bin	0.0003391968	201
bin	0.0003400512	217
bin	0.0003409056	232
bin	0.00034176	215
bin	0.0003426144	186
bin	0.0003434688	204
bin	0.0003443232	200
bin	0.0003451776	201
bin	0.000346032	197
bin	0.0003468864	190
bin	0.0003477408	160
bin	0.0003485952	158
bin	0.0003494496	164
bin	0.000350304	156
bin	0.0003511584	169
bin	0.0003520128	139
bin	0.0003528672	162
bin	0.0003537216	166
bin	0.000354576	147
bin	0.0003554304	131
bin	0.0003562848	162
bin	0.0003571392	118
bin	0.0003579936	153
bin	0.000358848	124
bin	0.0003597024	143
bin	0.0003605568	124
bin	0.0003614112	110
bin	0.0003622656	114
bin	0.00036312	114
bin	0.0003639744	98
bin	0.0003648288	106
bin	0.0003656832	102
bin	0.0003665376	106
bin	0.000367392	110
bin	0.0003682464	103
bin	0.0003691008	111
bin	0.0003699552	110
bin	0.0003708096	93
bin	0.000371664	81
bin	0.0003725184	101
bin	0.0003733728	94
bin	0.0003742272	88
bin	0.0003750816	100
bin	0.000375936	89
bin	0.0003767904	85
bin	0.0003776448	70
bin	0.0003784992	73
bin	0.0003793536	75
bin	0.000380208	77
bin	0.0003810624	85
bin	0.0003819168	69
bin	0.0003827712	67
bin	0.0003836256	63
bin	0.00038448	60
bin	0.0003853344	56
bin	0.0003861888	55
bin	0.0003870432	76
bin	0.0003878976	54
bin	0.000388752	58
bin	0.0003896064	65
bin	0.0003904608	56
bin	0.0003913152	52
bin	0.0003921696	66
bin	0.000393024	54
bin	0.0003938784	56
bin	0.0003947328	62
bin	0.0003955872	61
bin	0.0003964416	52
bin	0.000397296	56
bin	0.0003981504	50
bin	0.0003990048	48
bin	0.0003998592	48
bin	0.0004007136	39
bin	0.000401568	39
bin	0.0004024224	53
bin	0.0004032768	57
bin	0.0004041312	50
bin	0.0004049856	48
bin	0.00040584	41
bin	0.0004066944	42
bin	0.0004075488	40
bin	0.0004084032	39
bin	0.0004092576	36
bin	0.000410112	37
bin	0.0004109664	39
bin	0.0004118208	31
bin	0.0004126752	31
bin	0.0004135296	38
bin	0.000414384	38
bin	0.0004152384	41
bin	0.0004160928	34
bin	0.0004169472	28
bin	0.0004178016	26
bin	0.000418656	29
bin	0.0004195104	37
bin	0.0004203648	38
bin	0.0004212192	37
bin	0.0004220736	28
bin	0.000422928	37
bin	0.0004237824	33
bin	0.0004246368	23
bin	0.0004254912	35
bin	0.0004263456	25
bin	0.0004272	1234
