version 2
run Butterfly-108-20120709-12:53:59-24142
attr alg 0
attr buf 8
attr configname Butterfly
attr datetime 20120709-12:53:59
attr delta 0.8
attr experiment Butterfly
attr ext false
attr inifile altro.ini
attr iterationvars "$buf=8, $ext=false, $ofedge=1, $delta=0.8, $alg=0"
attr iterationvars2 "$buf=8, $ext=false, $ofedge=1, $delta=0.8, $alg=0, $repetition=0"
attr measurement "$buf=8, $ext=false, $ofedge=1, $delta=0.8, $alg=0"
attr network Torus3d_bub
attr ofedge 1
attr processid 24142
attr repetition 0
attr replication #0
attr resultdir altro-results
attr runnumber 108
attr seedset 108

scalar . 	alg 	0
scalar . 	buf 	8
scalar . 	delta 	0.8
scalar . 	ofedge 	1
scalar Torus3d_bub.timer 	#endTime 	0.001141381664926
scalar Torus3d_bub.timer 	#totalHops 	23592960
scalar Torus3d_bub.timer 	#totalPacks 	6291456
scalar Torus3d_bub.timer 	#totalDerouted 	0
scalar Torus3d_bub.timer 	#totalOutFlanked 	0
scalar Torus3d_bub.timer 	#totalCQRed 	0
scalar Torus3d_bub.timer 	#LB 	0.000786432
scalar Torus3d_bub.timer 	#ratio 	0.68901755141738
statistic Torus3d_bub.timer 	"Hop Times"
field count 6291456
field mean 2.3605301553749e-05
field stddev 3.0388850836037e-05
field sum 148.51171609215
field sqrsum 0.0093157108940998
field min 4.03166576e-07
field max 0.000293948332421
bin	-INF	0
bin	0	0
bin	7.12e-08	0
bin	1.424e-07	0
bin	2.136e-07	0
bin	2.848e-07	0
bin	3.56e-07	40
bin	4.272e-07	8464
bin	4.984e-07	16718
bin	5.696e-07	11023
bin	6.408e-07	16677
bin	7.12e-07	13548
bin	7.832e-07	8112
bin	8.544e-07	12004
bin	9.256e-07	14102
bin	9.968e-07	15136
bin	1.068e-06	3913
bin	1.1392e-06	26360
bin	1.2104e-06	18137
bin	1.2816e-06	17843
bin	1.3528e-06	9545
bin	1.424e-06	17632
bin	1.4952e-06	15585
bin	1.5664e-06	20115
bin	1.6376e-06	18625
bin	1.7088e-06	23562
bin	1.78e-06	26475
bin	1.8512e-06	12689
bin	1.9224e-06	34746
bin	1.9936e-06	16311
bin	2.0648e-06	26850
bin	2.136e-06	25386
bin	2.2072e-06	24960
bin	2.2784e-06	19798
bin	2.3496e-06	15283
bin	2.4208e-06	14721
bin	2.492e-06	23865
bin	2.5632e-06	22695
bin	2.6344e-06	14797
bin	2.7056e-06	19680
bin	2.7768e-06	18318
bin	2.848e-06	23737
bin	2.9192e-06	19651
bin	2.9904e-06	19876
bin	3.0616e-06	24352
bin	3.1328e-06	14134
bin	3.204e-06	22287
bin	3.2752e-06	16727
bin	3.3464e-06	26601
bin	3.4176e-06	20301
bin	3.4888e-06	23738
bin	3.56e-06	25818
bin	3.6312e-06	20241
bin	3.7024e-06	29455
bin	3.7736e-06	22771
bin	3.8448e-06	31887
bin	3.916e-06	18668
bin	3.9872e-06	19201
bin	4.0584e-06	18131
bin	4.1296e-06	23403
bin	4.2008e-06	17386
bin	4.272e-06	22187
bin	4.3432e-06	22947
bin	4.4144e-06	19154
bin	4.4856e-06	22850
bin	4.5568e-06	18579
bin	4.628e-06	25241
bin	4.6992e-06	13287
bin	4.7704e-06	19667
bin	4.8416e-06	20855
bin	4.9128e-06	23420
bin	4.984e-06	21778
bin	5.0552e-06	20896
bin	5.1264e-06	26436
bin	5.1976e-06	22361
bin	5.2688e-06	27255
bin	5.34e-06	20519
bin	5.4112e-06	27907
bin	5.4824e-06	18153
bin	5.5536e-06	24507
bin	5.6248e-06	18677
bin	5.696e-06	32889
bin	5.7672e-06	17966
bin	5.8384e-06	25174
bin	5.9096e-06	20611
bin	5.9808e-06	23718
bin	6.052e-06	20739
bin	6.1232e-06	17781
bin	6.1944e-06	26256
bin	6.2656e-06	16038
bin	6.3368e-06	24591
bin	6.408e-06	19178
bin	6.4792e-06	32721
bin	6.5504e-06	25052
bin	6.6216e-06	26150
bin	6.6928e-06	26643
bin	6.764e-06	18868
bin	6.8352e-06	26076
bin	6.9064e-06	16357
bin	6.9776e-06	18508
bin	7.0488e-06	15016
bin	7.12e-06	19150
bin	7.1912e-06	31608
bin	7.2624e-06	36343
bin	7.3336e-06	16914
bin	7.4048e-06	19393
bin	7.476e-06	20341
bin	7.5472e-06	19689
bin	7.6184e-06	18277
bin	7.6896e-06	18683
bin	7.7608e-06	29577
bin	7.832e-06	25228
bin	7.9032e-06	25014
bin	7.9744e-06	20572
bin	8.0456e-06	28391
bin	8.1168e-06	18785
bin	8.188e-06	21509
bin	8.2592e-06	20372
bin	8.3304e-06	17767
bin	8.4016e-06	17379
bin	8.4728e-06	18929
bin	8.544e-06	19856
bin	8.6152e-06	21128
bin	8.6864e-06	18990
bin	8.7576e-06	20845
bin	8.8288e-06	25511
bin	8.9e-06	15518
bin	8.9712e-06	25472
bin	9.0424e-06	21188
bin	9.1136e-06	22981
bin	9.1848e-06	15028
bin	9.256e-06	21020
bin	9.3272e-06	20015
bin	9.3984e-06	19636
bin	9.4696e-06	11308
bin	9.5408e-06	18511
bin	9.612e-06	17947
bin	9.6832e-06	13732
bin	9.7544e-06	17117
bin	9.8256e-06	11316
bin	9.8968e-06	22676
bin	9.968e-06	13431
bin	1.00392e-05	22709
bin	1.01104e-05	18026
bin	1.01816e-05	17291
bin	1.02528e-05	13353
bin	1.0324e-05	22801
bin	1.03952e-05	23519
bin	1.04664e-05	13316
bin	1.05376e-05	18217
bin	1.06088e-05	16710
bin	1.068e-05	25180
bin	1.07512e-05	13300
bin	1.08224e-05	21087
bin	1.08936e-05	21297
bin	1.09648e-05	21751
bin	1.1036e-05	14367
bin	1.11072e-05	21145
bin	1.11784e-05	24648
bin	1.12496e-05	13323
bin	1.13208e-05	17900
bin	1.1392e-05	12643
bin	1.14632e-05	22144
bin	1.15344e-05	12925
bin	1.16056e-05	20606
bin	1.16768e-05	17995
bin	1.1748e-05	18041
bin	1.18192e-05	10657
bin	1.18904e-05	18467
bin	1.19616e-05	28031
bin	1.20328e-05	10798
bin	1.2104e-05	12758
bin	1.21752e-05	19153
bin	1.22464e-05	23831
bin	1.23176e-05	13557
bin	1.23888e-05	15035
bin	1.246e-05	19308
bin	1.25312e-05	18838
bin	1.26024e-05	10568
bin	1.26736e-05	18953
bin	1.27448e-05	22811
bin	1.2816e-05	12369
bin	1.28872e-05	16347
bin	1.29584e-05	14481
bin	1.30296e-05	11435
bin	1.31008e-05	11301
bin	1.3172e-05	15576
bin	1.32432e-05	11726
bin	1.33144e-05	14047
bin	1.33856e-05	11909
bin	1.34568e-05	14649
bin	1.3528e-05	13160
bin	1.35992e-05	9576
bin	1.36704e-05	10955
bin	1.37416e-05	12375
bin	1.38128e-05	13544
bin	1.3884e-05	12878
bin	1.39552e-05	10729
bin	1.40264e-05	13072
bin	1.40976e-05	11486
bin	1.41688e-05	13256
bin	1.424e-05	13598
bin	1.43112e-05	10142
bin	1.43824e-05	10606
bin	1.44536e-05	11648
bin	1.45248e-05	10315
bin	1.4596e-05	14021
bin	1.46672e-05	10109
bin	1.47384e-05	10683
bin	1.48096e-05	12028
bin	1.48808e-05	16295
bin	1.4952e-05	12874
bin	1.50232e-05	12256
bin	1.50944e-05	9039
bin	1.51656e-05	5828
bin	1.52368e-05	5162
bin	1.5308e-05	7433
bin	1.53792e-05	6865
bin	1.54504e-05	5553
bin	1.55216e-05	5919
bin	1.55928e-05	5534
bin	1.5664e-05	6027
bin	1.57352e-05	5038
bin	1.58064e-05	6503
bin	1.58776e-05	6942
bin	1.59488e-05	5649
bin	1.602e-05	4625
bin	1.60912e-05	7751
bin	1.61624e-05	6574
bin	1.62336e-05	5780
bin	1.63048e-05	6756
bin	1.6376e-05	6187
bin	1.64472e-05	6500
bin	1.65184e-05	6007
bin	1.65896e-05	6505
bin	1.66608e-05	6665
bin	1.6732e-05	5237
bin	1.68032e-05	5134
bin	1.68744e-05	6978
bin	1.69456e-05	7111
bin	1.70168e-05	5132
bin	1.7088e-05	5742
bin	1.71592e-05	6761
bin	1.72304e-05	6094
bin	1.73016e-05	5255
bin	1.73728e-05	6913
bin	1.7444e-05	7167
bin	1.75152e-05	5150
bin	1.75864e-05	5446
bin	1.76576e-05	6292
bin	1.77288e-05	5863
bin	1.78e-05	4277
bin	1.78712e-05	5816
bin	1.79424e-05	5182
bin	1.80136e-05	5354
bin	1.80848e-05	4562
bin	1.8156e-05	5315
bin	1.82272e-05	6345
bin	1.82984e-05	3922
bin	1.83696e-05	4481
bin	1.84408e-05	5903
bin	1.8512e-05	5913
bin	1.85832e-05	4642
bin	1.86544e-05	3759
bin	1.87256e-05	6349
bin	1.87968e-05	5555
bin	1.8868e-05	4803
bin	1.89392e-05	5239
bin	1.90104e-05	6309
bin	1.90816e-05	4178
bin	1.91528e-05	4902
bin	1.9224e-05	4314
bin	1.92952e-05	6103
bin	1.93664e-05	3944
bin	1.94376e-05	6189
bin	1.95088e-05	4430
bin	1.958e-05	5086
bin	1.96512e-05	4482
bin	1.97224e-05	3491
bin	1.97936e-05	5811
bin	1.98648e-05	3968
bin	1.9936e-05	3973
bin	2.00072e-05	3784
bin	2.00784e-05	5796
bin	2.01496e-05	3595
bin	2.02208e-05	4421
bin	2.0292e-05	4212
bin	2.03632e-05	4624
bin	2.04344e-05	3971
bin	2.05056e-05	3069
bin	2.05768e-05	4453
bin	2.0648e-05	3056
bin	2.07192e-05	3320
bin	2.07904e-05	2641
bin	2.08616e-05	4663
bin	2.09328e-05	2677
bin	2.1004e-05	3010
bin	2.10752e-05	3111
bin	2.11464e-05	4078
bin	2.12176e-05	2828
bin	2.12888e-05	2949
bin	2.136e-05	4876
bin	2.14312e-05	2586
bin	2.15024e-05	3252
bin	2.15736e-05	2629
bin	2.16448e-05	4536
bin	2.1716e-05	2678
bin	2.17872e-05	2976
bin	2.18584e-05	3408
bin	2.19296e-05	4373
bin	2.20008e-05	3201
bin	2.2072e-05	2276
bin	2.21432e-05	4734
bin	2.22144e-05	3100
bin	2.22856e-05	2806
bin	2.23568e-05	2462
bin	2.2428e-05	4483
bin	2.24992e-05	2308
bin	2.25704e-05	2811
bin	2.26416e-05	3352
bin	2.27128e-05	3998
bin	2.2784e-05	2948
bin	2.28552e-05	2457
bin	2.29264e-05	4363
bin	2.29976e-05	2900
bin	2.30688e-05	2794
bin	2.314e-05	2476
bin	2.32112e-05	4547
bin	2.32824e-05	2632
bin	2.33536e-05	2613
bin	2.34248e-05	3160
bin	2.3496e-05	2782
bin	2.35672e-05	2755
bin	2.36384e-05	2205
bin	2.37096e-05	3822
bin	2.37808e-05	2210
bin	2.3852e-05	2021
bin	2.39232e-05	2490
bin	2.39944e-05	3464
bin	2.40656e-05	2299
bin	2.41368e-05	1914
bin	2.4208e-05	2078
bin	2.42792e-05	3600
bin	2.43504e-05	2069
bin	2.44216e-05	2004
bin	2.44928e-05	3783
bin	2.4564e-05	2639
bin	2.46352e-05	1890
bin	2.47064e-05	2398
bin	2.47776e-05	3899
bin	2.48488e-05	2448
bin	2.492e-05	2027
bin	2.49912e-05	2470
bin	2.50624e-05	3677
bin	2.51336e-05	2461
bin	2.52048e-05	2664
bin	2.5276e-05	3716
bin	2.53472e-05	2586
bin	2.54184e-05	2225
bin	2.54896e-05	2312
bin	2.55608e-05	3841
bin	2.5632e-05	2487
bin	2.57032e-05	1916
bin	2.57744e-05	2536
bin	2.58456e-05	5278
bin	2.59168e-05	2138
bin	2.5988e-05	2371
bin	2.60592e-05	3780
bin	2.61304e-05	2352
bin	2.62016e-05	3875
bin	2.62728e-05	2765
bin	2.6344e-05	3579
bin	2.64152e-05	2458
bin	2.64864e-05	3485
bin	2.65576e-05	2721
bin	2.66288e-05	3731
bin	2.67e-05	3970
bin	2.67712e-05	3724
bin	2.68424e-05	7004
bin	2.69136e-05	2433
bin	2.69848e-05	2120
bin	2.7056e-05	2645
bin	2.71272e-05	3659
bin	2.71984e-05	2198
bin	2.72696e-05	2356
bin	2.73408e-05	2332
bin	2.7412e-05	3480
bin	2.74832e-05	2078
bin	2.75544e-05	2769
bin	2.76256e-05	3219
bin	2.76968e-05	2798
bin	2.7768e-05	2156
bin	2.78392e-05	2565
bin	2.79104e-05	3803
bin	2.79816e-05	2606
bin	2.80528e-05	2268
bin	2.8124e-05	2600
bin	2.81952e-05	3966
bin	2.82664e-05	2242
bin	2.83376e-05	2905
bin	2.84088e-05	3743
bin	2.848e-05	2480
bin	2.85512e-05	2556
bin	2.86224e-05	2732
bin	2.86936e-05	3920
bin	2.87648e-05	2090
bin	2.8836e-05	2679
bin	2.89072e-05	2553
bin	2.89784e-05	3752
bin	2.90496e-05	2636
bin	2.91208e-05	2996
bin	2.9192e-05	3692
bin	2.92632e-05	2452
bin	2.93344e-05	2385
bin	2.94056e-05	2571
bin	2.94768e-05	3796
bin	2.9548e-05	2604
bin	2.96192e-05	2381
bin	2.96904e-05	2675
bin	2.97616e-05	5536
bin	2.98328e-05	2472
bin	2.9904e-05	2880
bin	2.99752e-05	3796
bin	3.00464e-05	2560
bin	3.01176e-05	4193
bin	3.01888e-05	4603
bin	3.026e-05	6932
bin	3.03312e-05	2996
bin	3.04024e-05	4852
bin	3.04736e-05	4172
bin	3.05448e-05	5918
bin	3.0616e-05	6041
bin	3.06872e-05	3075
bin	3.07584e-05	5644
bin	3.08296e-05	4772
bin	3.09008e-05	7317
bin	3.0972e-05	3043
bin	3.10432e-05	6396
bin	3.11144e-05	5844
bin	3.11856e-05	5544
bin	3.12568e-05	4972
bin	3.1328e-05	5720
bin	3.13992e-05	5905
bin	3.14704e-05	4491
bin	3.15416e-05	8564
bin	3.16128e-05	3612
bin	3.1684e-05	5520
bin	3.17552e-05	4224
bin	3.18264e-05	5260
bin	3.18976e-05	4308
bin	3.19688e-05	3128
bin	3.204e-05	4268
bin	3.21112e-05	9328
bin	3.21824e-05	4380
bin	3.22536e-05	4856
bin	3.23248e-05	5804
bin	3.2396e-05	6788
bin	3.24672e-05	5376
bin	3.25384e-05	6796
bin	3.26096e-05	4994
bin	3.26808e-05	4928
bin	3.2752e-05	6345
bin	3.28232e-05	5012
bin	3.28944e-05	5240
bin	3.29656e-05	3677
bin	3.30368e-05	4730
bin	3.3108e-05	4572
bin	3.31792e-05	3400
bin	3.32504e-05	3164
bin	3.33216e-05	5193
bin	3.33928e-05	4150
bin	3.3464e-05	2899
bin	3.35352e-05	4155
bin	3.36064e-05	4177
bin	3.36776e-05	4712
bin	3.37488e-05	2632
bin	3.382e-05	4833
bin	3.38912e-05	3754
bin	3.39624e-05	3409
bin	3.40336e-05	2893
bin	3.41048e-05	5071
bin	3.4176e-05	3633
bin	3.42472e-05	3269
bin	3.43184e-05	2878
bin	3.43896e-05	4145
bin	3.44608e-05	3231
bin	3.4532e-05	2879
bin	3.46032e-05	4408
bin	3.46744e-05	2605
bin	3.47456e-05	3455
bin	3.48168e-05	2515
bin	3.4888e-05	4648
bin	3.49592e-05	3200
bin	3.50304e-05	2577
bin	3.51016e-05	4573
bin	3.51728e-05	2528
bin	3.5244e-05	3204
bin	3.53152e-05	2709
bin	3.53864e-05	4018
bin	3.54576e-05	2544
bin	3.55288e-05	3032
bin	3.56e-05	1246322
statistic Torus3d_bub.timer 	"Life Times"
field count 6291456
field mean 5.5778694532713e-05
field stddev 4.681452045233e-05
field sum 350.92920239
field sqrsum 0.033362721315131
field min 5.2e-07
field max 0.000293948332421
bin	-INF	0
bin	0	11728
bin	8.544e-07	46440
bin	1.7088e-06	79936
bin	2.5632e-06	68009
bin	3.4176e-06	68962
bin	4.272e-06	71046
bin	5.1264e-06	79561
bin	5.9808e-06	90648
bin	6.8352e-06	84827
bin	7.6896e-06	87455
bin	8.544e-06	98776
bin	9.3984e-06	88865
bin	1.02528e-05	83922
bin	1.11072e-05	105976
bin	1.19616e-05	100174
bin	1.2816e-05	83231
bin	1.36704e-05	69242
bin	1.45248e-05	82125
bin	1.53792e-05	82622
bin	1.62336e-05	73036
bin	1.7088e-05	72969
bin	1.79424e-05	77297
bin	1.87968e-05	74517
bin	1.96512e-05	63847
bin	2.05056e-05	67002
bin	2.136e-05	69365
bin	2.22144e-05	78083
bin	2.30688e-05	61096
bin	2.39232e-05	72505
bin	2.47776e-05	68852
bin	2.5632e-05	52298
bin	2.64864e-05	51580
bin	2.73408e-05	53655
bin	2.81952e-05	55125
bin	2.90496e-05	55177
bin	2.9904e-05	49625
bin	3.07584e-05	54625
bin	3.16128e-05	46346
bin	3.24672e-05	51659
bin	3.33216e-05	49917
bin	3.4176e-05	44073
bin	3.50304e-05	44160
bin	3.58848e-05	43778
bin	3.67392e-05	38450
bin	3.75936e-05	37923
bin	3.8448e-05	36388
bin	3.93024e-05	34905
bin	4.01568e-05	41050
bin	4.10112e-05	40250
bin	4.18656e-05	42775
bin	4.272e-05	37726
bin	4.35744e-05	38255
bin	4.44288e-05	34943
bin	4.52832e-05	35955
bin	4.61376e-05	40151
bin	4.6992e-05	36630
bin	4.78464e-05	35975
bin	4.87008e-05	33420
bin	4.95552e-05	32821
bin	5.04096e-05	29770
bin	5.1264e-05	34594
bin	5.21184e-05	37424
bin	5.29728e-05	31948
bin	5.38272e-05	32763
bin	5.46816e-05	31458
bin	5.5536e-05	32445
bin	5.63904e-05	34525
bin	5.72448e-05	37480
bin	5.80992e-05	36273
bin	5.89536e-05	27204
bin	5.9808e-05	31800
bin	6.06624e-05	33074
bin	6.15168e-05	31835
bin	6.23712e-05	38192
bin	6.32256e-05	37049
bin	6.408e-05	33459
bin	6.49344e-05	31344
bin	6.57888e-05	29423
bin	6.66432e-05	27066
bin	6.74976e-05	25658
bin	6.8352e-05	26187
bin	6.92064e-05	30646
bin	7.00608e-05	27997
bin	7.09152e-05	26559
bin	7.17696e-05	27545
bin	7.2624e-05	30842
bin	7.34784e-05	27194
bin	7.43328e-05	26292
bin	7.51872e-05	23512
bin	7.60416e-05	20480
bin	7.6896e-05	19918
bin	7.77504e-05	19577
bin	7.86048e-05	17621
bin	7.94592e-05	22451
bin	8.03136e-05	23742
bin	8.1168e-05	21405
bin	8.20224e-05	24321
bin	8.28768e-05	29901
bin	8.37312e-05	29831
bin	8.45856e-05	32761
bin	8.544e-05	32658
bin	8.62944e-05	32224
bin	8.71488e-05	31339
bin	8.80032e-05	33135
bin	8.88576e-05	31726
bin	8.9712e-05	33863
bin	9.05664e-05	30609
bin	9.14208e-05	25035
bin	9.22752e-05	28744
bin	9.31296e-05	21261
bin	9.3984e-05	21891
bin	9.48384e-05	17019
bin	9.56928e-05	15550
bin	9.65472e-05	16471
bin	9.74016e-05	15149
bin	9.8256e-05	16826
bin	9.91104e-05	14714
bin	9.99648e-05	14966
bin	0.0001008192	14966
bin	0.0001016736	12751
bin	0.000102528	14145
bin	0.0001033824	17380
bin	0.0001042368	18600
bin	0.0001050912	20690
bin	0.0001059456	18500
bin	0.0001068	26927
bin	0.0001076544	20645
bin	0.0001085088	16941
bin	0.0001093632	18638
bin	0.0001102176	19890
bin	0.000111072	20777
bin	0.0001119264	20424
bin	0.0001127808	19910
bin	0.0001136352	23097
bin	0.0001144896	17010
bin	0.000115344	19630
bin	0.0001161984	17348
bin	0.0001170528	16267
bin	0.0001179072	18863
bin	0.0001187616	24491
bin	0.000119616	22073
bin	0.0001204704	20625
bin	0.0001213248	14949
bin	0.0001221792	15641
bin	0.0001230336	18959
bin	0.000123888	16226
bin	0.0001247424	13756
bin	0.0001255968	19018
bin	0.0001264512	13678
bin	0.0001273056	12456
bin	0.00012816	18521
bin	0.0001290144	15794
bin	0.0001298688	14422
bin	0.0001307232	16288
bin	0.0001315776	11936
bin	0.000132432	12122
bin	0.0001332864	11038
bin	0.0001341408	11009
bin	0.0001349952	10553
bin	0.0001358496	10978
bin	0.000136704	10693
bin	0.0001375584	11165
bin	0.0001384128	10237
bin	0.0001392672	9694
bin	0.0001401216	9712
bin	0.000140976	8395
bin	0.0001418304	8119
bin	0.0001426848	7991
bin	0.0001435392	7425
bin	0.0001443936	7561
bin	0.000145248	7397
bin	0.0001461024	7952
bin	0.0001469568	10871
bin	0.0001478112	11384
bin	0.0001486656	14499
bin	0.00014952	8596
bin	0.0001503744	8451
bin	0.0001512288	7915
bin	0.0001520832	7880
bin	0.0001529376	7656
bin	0.000153792	7275
bin	0.0001546464	7189
bin	0.0001555008	7064
bin	0.0001563552	6690
bin	0.0001572096	6220
bin	0.000158064	6198
bin	0.0001589184	5954
bin	0.0001597728	5840
bin	0.0001606272	5856
bin	0.0001614816	5858
bin	0.000162336	5308
bin	0.0001631904	5625
bin	0.0001640448	5016
bin	0.0001648992	4596
bin	0.0001657536	4352
bin	0.000166608	4168
bin	0.0001674624	4022
bin	0.0001683168	4448
bin	0.0001691712	4541
bin	0.0001700256	4344
bin	0.00017088	4440
bin	0.0001717344	4224
bin	0.0001725888	4120
bin	0.0001734432	4264
bin	0.0001742976	3981
bin	0.000175152	4216
bin	0.0001760064	4106
bin	0.0001768608	4144
bin	0.0001777152	4072
bin	0.0001785696	3912
bin	0.000179424	3696
bin	0.0001802784	3552
bin	0.0001811328	3232
bin	0.0001819872	3064
bin	0.0001828416	2757
bin	0.000183696	2728
bin	0.0001845504	2731
bin	0.0001854048	2659
bin	0.0001862592	2608
bin	0.0001871136	2568
bin	0.000187968	2440
bin	0.0001888224	2435
bin	0.0001896768	2238
bin	0.0001905312	2083
bin	0.0001913856	2089
bin	0.00019224	2439
bin	0.0001930944	2118
bin	0.0001939488	2120
bin	0.0001948032	1984
bin	0.0001956576	1560
bin	0.000196512	1608
bin	0.0001973664	1296
bin	0.0001982208	1552
bin	0.0001990752	1664
bin	0.0001999296	1440
bin	0.000200784	1731
bin	0.0002016384	1784
bin	0.0002024928	1568
bin	0.0002033472	1680
bin	0.0002042016	1680
bin	0.000205056	1672
bin	0.0002059104	1651
bin	0.0002067648	1512
bin	0.0002076192	1480
bin	0.0002084736	1312
bin	0.000209328	1360
bin	0.0002101824	1200
bin	0.0002110368	1144
bin	0.0002118912	1176
bin	0.0002127456	1104
bin	0.0002136	1232
bin	0.0002144544	1032
bin	0.0002153088	864
bin	0.0002161632	832
bin	0.0002170176	688
bin	0.000217872	606
bin	0.0002187264	624
bin	0.0002195808	680
bin	0.0002204352	640
bin	0.0002212896	648
bin	0.000222144	640
bin	0.0002229984	664
bin	0.0002238528	584
bin	0.0002247072	584
bin	0.0002255616	544
bin	0.000226416	488
bin	0.0002272704	384
bin	0.0002281248	400
bin	0.0002289792	360
bin	0.0002298336	368
bin	0.000230688	480
bin	0.0002315424	320
bin	0.0002323968	328
bin	0.0002332512	296
bin	0.0002341056	208
bin	0.00023496	232
bin	0.0002358144	184
bin	0.0002366688	192
bin	0.0002375232	152
bin	0.0002383776	144
bin	0.000239232	192
bin	0.0002400864	136
bin	0.0002409408	224
bin	0.0002417952	112
bin	0.0002426496	120
bin	0.000243504	176
bin	0.0002443584	192
bin	0.0002452128	128
bin	0.0002460672	144
bin	0.0002469216	176
bin	0.000247776	168
bin	0.0002486304	176
bin	0.0002494848	128
bin	0.0002503392	144
bin	0.0002511936	144
bin	0.000252048	152
bin	0.0002529024	96
bin	0.0002537568	56
bin	0.0002546112	72
bin	0.0002554656	56
bin	0.00025632	56
bin	0.0002571744	32
bin	0.0002580288	24
bin	0.0002588832	32
bin	0.0002597376	24
bin	0.000260592	24
bin	0.0002614464	8
bin	0.0002623008	0
bin	0.0002631552	8
bin	0.0002640096	16
bin	0.000264864	24
bin	0.0002657184	24
bin	0.0002665728	16
bin	0.0002674272	24
bin	0.0002682816	24
bin	0.000269136	8
bin	0.0002699904	0
bin	0.0002708448	0
bin	0.0002716992	8
bin	0.0002725536	8
bin	0.000273408	0
bin	0.0002742624	8
bin	0.0002751168	24
bin	0.0002759712	16
bin	0.0002768256	8
bin	0.00027768	24
bin	0.0002785344	8
bin	0.0002793888	0
bin	0.0002802432	0
bin	0.0002810976	0
bin	0.000281952	0
bin	0.0002828064	0
bin	0.0002836608	0
bin	0.0002845152	8
bin	0.0002853696	0
bin	0.000286224	0
bin	0.0002870784	0
bin	0.0002879328	0
bin	0.0002887872	0
bin	0.0002896416	0
bin	0.000290496	0
bin	0.0002913504	0
bin	0.0002922048	16
bin	0.0002930592	8
bin	0.0002939136	8
bin	0.000294768	0
bin	0.0002956224	0
bin	0.0002964768	0
bin	0.0002973312	0
bin	0.0002981856	0
bin	0.00029904	0
bin	0.0002998944	0
bin	0.0003007488	0
bin	0.0003016032	0
bin	0.0003024576	0
bin	0.000303312	0
bin	0.0003041664	0
bin	0.0003050208	0
bin	0.0003058752	0
bin	0.0003067296	0
bin	0.000307584	0
bin	0.0003084384	0
bin	0.0003092928	0
bin	0.0003101472	0
bin	0.0003110016	0
bin	0.000311856	0
bin	0.0003127104	0
bin	0.0003135648	0
bin	0.0003144192	0
bin	0.0003152736	0
bin	0.000316128	0
bin	0.0003169824	0
bin	0.0003178368	0
bin	0.0003186912	0
bin	0.0003195456	0
bin	0.0003204	0
bin	0.0003212544	0
bin	0.0003221088	0
bin	0.0003229632	0
bin	0.0003238176	0
bin	0.000324672	0
bin	0.0003255264	0
bin	0.0003263808	0
bin	0.0003272352	0
bin	0.0003280896	0
bin	0.000328944	0
bin	0.0003297984	0
bin	0.0003306528	0
bin	0.0003315072	0
bin	0.0003323616	0
bin	0.000333216	0
bin	0.0003340704	0
bin	0.0003349248	0
bin	0.0003357792	0
bin	0.0003366336	0
bin	0.000337488	0
bin	0.0003383424	0
bin	0.0003391968	0
bin	0.0003400512	0
bin	0.0003409056	0
bin	0.00034176	0
bin	0.0003426144	0
bin	0.0003434688	0
bin	0.0003443232	0
bin	0.0003451776	0
bin	0.000346032	0
bin	0.0003468864	0
bin	0.0003477408	0
bin	0.0003485952	0
bin	0.0003494496	0
bin	0.000350304	0
bin	0.0003511584	0
bin	0.0003520128	0
bin	0.0003528672	0
bin	0.0003537216	0
bin	0.000354576	0
bin	0.0003554304	0
bin	0.0003562848	0
bin	0.0003571392	0
bin	0.0003579936	0
bin	0.000358848	0
bin	0.0003597024	0
bin	0.0003605568	0
bin	0.0003614112	0
bin	0.0003622656	0
bin	0.00036312	0
bin	0.0003639744	0
bin	0.0003648288	0
bin	0.0003656832	0
bin	0.0003665376	0
bin	0.000367392	0
bin	0.0003682464	0
bin	0.0003691008	0
bin	0.0003699552	0
bin	0.0003708096	0
bin	0.000371664	0
bin	0.0003725184	0
bin	0.0003733728	0
bin	0.0003742272	0
bin	0.0003750816	0
bin	0.000375936	0
bin	0.0003767904	0
bin	0.0003776448	0
bin	0.0003784992	0
bin	0.0003793536	0
bin	0.000380208	0
bin	0.0003810624	0
bin	0.0003819168	0
bin	0.0003827712	0
bin	0.0003836256	0
bin	0.00038448	0
bin	0.0003853344	0
bin	0.0003861888	0
bin	0.0003870432	0
bin	0.0003878976	0
bin	0.000388752	0
bin	0.0003896064	0
bin	0.0003904608	0
bin	0.0003913152	0
bin	0.0003921696	0
bin	0.000393024	0
bin	0.0003938784	0
bin	0.0003947328	0
bin	0.0003955872	0
bin	0.0003964416	0
bin	0.000397296	0
bin	0.0003981504	0
bin	0.0003990048	0
bin	0.0003998592	0
bin	0.0004007136	0
bin	0.000401568	0
bin	0.0004024224	0
bin	0.0004032768	0
bin	0.0004041312	0
bin	0.0004049856	0
bin	0.00040584	0
bin	0.0004066944	0
bin	0.0004075488	0
bin	0.0004084032	0
bin	0.0004092576	0
bin	0.000410112	0
bin	0.0004109664	0
bin	0.0004118208	0
bin	0.0004126752	0
bin	0.0004135296	0
bin	0.000414384	0
bin	0.0004152384	0
bin	0.0004160928	0
bin	0.0004169472	0
bin	0.0004178016	0
bin	0.000418656	0
bin	0.0004195104	0
bin	0.0004203648	0
bin	0.0004212192	0
bin	0.0004220736	0
bin	0.000422928	0
bin	0.0004237824	0
bin	0.0004246368	0
bin	0.0004254912	0
bin	0.0004263456	0
bin	0.0004272	0
