version 2
run Butterfly-66-20120709-11:47:30-22816
attr alg 2
attr buf 8
attr configname Butterfly
attr datetime 20120709-11:47:30
attr delta 1
attr experiment Butterfly
attr ext true
attr inifile altro.ini
attr iterationvars "$buf=8, $ext=true, $ofedge=2, $delta=1, $alg=2"
attr iterationvars2 "$buf=8, $ext=true, $ofedge=2, $delta=1, $alg=2, $repetition=0"
attr measurement "$buf=8, $ext=true, $ofedge=2, $delta=1, $alg=2"
attr network Torus3d_bub
attr ofedge 2
attr processid 22816
attr repetition 0
attr replication #0
attr resultdir altro-results
attr runnumber 66
attr seedset 66

scalar . 	alg 	2
scalar . 	buf 	8
scalar . 	delta 	1
scalar . 	ofedge 	2
scalar Torus3d_bub.timer 	#endTime 	0.001143792665157
scalar Torus3d_bub.timer 	#totalHops 	41561712
scalar Torus3d_bub.timer 	#totalPacks 	6291456
scalar Torus3d_bub.timer 	#totalDerouted 	2241480
scalar Torus3d_bub.timer 	#totalOutFlanked 	0
scalar Torus3d_bub.timer 	#totalCQRed 	2241480
scalar Torus3d_bub.timer 	#LB 	0.000786432
scalar Torus3d_bub.timer 	#ratio 	0.68756517151826
statistic Torus3d_bub.timer 	"Hop Times"
field count 6291456
field mean 5.5470237375213e-05
field stddev 6.5143176793689e-05
field sum 348.98855775571
field sqrsum 0.046057107233307
field min 3.97833184e-07
field max 0.000412968665132
bin	-INF	0
bin	0	0
bin	7.12e-08	0
bin	1.424e-07	0
bin	2.136e-07	0
bin	2.848e-07	0
bin	3.56e-07	16
bin	4.272e-07	152
bin	4.984e-07	120
bin	5.696e-07	232
bin	6.408e-07	144
bin	7.12e-07	4328
bin	7.832e-07	232
bin	8.544e-07	264
bin	9.256e-07	6408
bin	9.968e-07	336
bin	1.068e-06	4464
bin	1.1392e-06	360
bin	1.2104e-06	4584
bin	1.2816e-06	6576
bin	1.3528e-06	8688
bin	1.424e-06	432
bin	1.4952e-06	10664
bin	1.5664e-06	18968
bin	1.6376e-06	17784
bin	1.7088e-06	19992
bin	1.78e-06	6512
bin	1.8512e-06	1552
bin	1.9224e-06	5576
bin	1.9936e-06	8656
bin	2.0648e-06	4488
bin	2.136e-06	3560
bin	2.2072e-06	4568
bin	2.2784e-06	7504
bin	2.3496e-06	2552
bin	2.4208e-06	4464
bin	2.492e-06	6648
bin	2.5632e-06	2512
bin	2.6344e-06	6592
bin	2.7056e-06	5512
bin	2.7768e-06	7480
bin	2.848e-06	4536
bin	2.9192e-06	4568
bin	2.9904e-06	5512
bin	3.0616e-06	8624
bin	3.1328e-06	2800
bin	3.204e-06	3360
bin	3.2752e-06	8672
bin	3.3464e-06	3392
bin	3.4176e-06	3920
bin	3.4888e-06	4928
bin	3.56e-06	9640
bin	3.6312e-06	2952
bin	3.7024e-06	1664
bin	3.7736e-06	5472
bin	3.8448e-06	11128
bin	3.916e-06	5160
bin	3.9872e-06	4720
bin	4.0584e-06	6552
bin	4.1296e-06	7016
bin	4.2008e-06	4496
bin	4.272e-06	5448
bin	4.3432e-06	9048
bin	4.4144e-06	7744
bin	4.4856e-06	4752
bin	4.5568e-06	3872
bin	4.628e-06	10688
bin	4.6992e-06	4696
bin	4.7704e-06	5008
bin	4.8416e-06	13320
bin	4.9128e-06	9440
bin	4.984e-06	6616
bin	5.0552e-06	7744
bin	5.1264e-06	11808
bin	5.1976e-06	8056
bin	5.2688e-06	6720
bin	5.34e-06	3968
bin	5.4112e-06	8824
bin	5.4824e-06	4472
bin	5.5536e-06	9304
bin	5.6248e-06	8832
bin	5.696e-06	3760
bin	5.7672e-06	6672
bin	5.8384e-06	6768
bin	5.9096e-06	11680
bin	5.9808e-06	3688
bin	6.052e-06	7376
bin	6.1232e-06	7472
bin	6.1944e-06	9024
bin	6.2656e-06	4704
bin	6.3368e-06	5112
bin	6.408e-06	10048
bin	6.4792e-06	7640
bin	6.5504e-06	8472
bin	6.6216e-06	9800
bin	6.6928e-06	10952
bin	6.764e-06	6720
bin	6.8352e-06	5128
bin	6.9064e-06	6128
bin	6.9776e-06	8384
bin	7.0488e-06	5848
bin	7.12e-06	7240
bin	7.1912e-06	10720
bin	7.2624e-06	8904
bin	7.3336e-06	6536
bin	7.4048e-06	7696
bin	7.476e-06	11832
bin	7.5472e-06	7992
bin	7.6184e-06	5816
bin	7.6896e-06	5240
bin	7.7608e-06	10840
bin	7.832e-06	8584
bin	7.9032e-06	8568
bin	7.9744e-06	11408
bin	8.0456e-06	5920
bin	8.1168e-06	7952
bin	8.188e-06	7528
bin	8.2592e-06	8888
bin	8.3304e-06	7368
bin	8.4016e-06	8288
bin	8.4728e-06	7352
bin	8.544e-06	11896
bin	8.6152e-06	6888
bin	8.6864e-06	8560
bin	8.7576e-06	12184
bin	8.8288e-06	7552
bin	8.9e-06	6376
bin	8.9712e-06	8008
bin	9.0424e-06	7016
bin	9.1136e-06	8464
bin	9.1848e-06	7696
bin	9.256e-06	6336
bin	9.3272e-06	11128
bin	9.3984e-06	8296
bin	9.4696e-06	10064
bin	9.5408e-06	12904
bin	9.612e-06	10680
bin	9.6832e-06	9624
bin	9.7544e-06	7288
bin	9.8256e-06	10072
bin	9.8968e-06	8888
bin	9.968e-06	11640
bin	1.00392e-05	7208
bin	1.01104e-05	7504
bin	1.01816e-05	8112
bin	1.02528e-05	9312
bin	1.0324e-05	12584
bin	1.03952e-05	10432
bin	1.04664e-05	8456
bin	1.05376e-05	7712
bin	1.06088e-05	11936
bin	1.068e-05	11528
bin	1.07512e-05	9240
bin	1.08224e-05	9056
bin	1.08936e-05	8328
bin	1.09648e-05	10936
bin	1.1036e-05	9320
bin	1.11072e-05	13128
bin	1.11784e-05	10464
bin	1.12496e-05	7560
bin	1.13208e-05	9768
bin	1.1392e-05	10072
bin	1.14632e-05	10688
bin	1.15344e-05	9520
bin	1.16056e-05	8112
bin	1.16768e-05	9880
bin	1.1748e-05	9168
bin	1.18192e-05	8560
bin	1.18904e-05	8856
bin	1.19616e-05	10464
bin	1.20328e-05	10480
bin	1.2104e-05	10520
bin	1.21752e-05	8816
bin	1.22464e-05	9264
bin	1.23176e-05	11120
bin	1.23888e-05	9064
bin	1.246e-05	9536
bin	1.25312e-05	8848
bin	1.26024e-05	11192
bin	1.26736e-05	9360
bin	1.27448e-05	9480
bin	1.2816e-05	8456
bin	1.28872e-05	11840
bin	1.29584e-05	11632
bin	1.30296e-05	9160
bin	1.31008e-05	12104
bin	1.3172e-05	10776
bin	1.32432e-05	9992
bin	1.33144e-05	9120
bin	1.33856e-05	9200
bin	1.34568e-05	9808
bin	1.3528e-05	12552
bin	1.35992e-05	9368
bin	1.36704e-05	11288
bin	1.37416e-05	9216
bin	1.38128e-05	9104
bin	1.3884e-05	11072
bin	1.39552e-05	9520
bin	1.40264e-05	9984
bin	1.40976e-05	9488
bin	1.41688e-05	10568
bin	1.424e-05	9576
bin	1.43112e-05	11616
bin	1.43824e-05	12040
bin	1.44536e-05	10352
bin	1.45248e-05	11432
bin	1.4596e-05	10472
bin	1.46672e-05	10648
bin	1.47384e-05	10240
bin	1.48096e-05	11760
bin	1.48808e-05	10096
bin	1.4952e-05	10520
bin	1.50232e-05	11416
bin	1.50944e-05	10616
bin	1.51656e-05	9456
bin	1.52368e-05	10368
bin	1.5308e-05	11424
bin	1.53792e-05	11888
bin	1.54504e-05	11680
bin	1.55216e-05	10088
bin	1.55928e-05	10752
bin	1.5664e-05	9968
bin	1.57352e-05	9872
bin	1.58064e-05	10048
bin	1.58776e-05	10136
bin	1.59488e-05	9984
bin	1.602e-05	8568
bin	1.60912e-05	10240
bin	1.61624e-05	10560
bin	1.62336e-05	10896
bin	1.63048e-05	9552
bin	1.6376e-05	10296
bin	1.64472e-05	10408
bin	1.65184e-05	9968
bin	1.65896e-05	8544
bin	1.66608e-05	9120
bin	1.6732e-05	10016
bin	1.68032e-05	9808
bin	1.68744e-05	9400
bin	1.69456e-05	9272
bin	1.70168e-05	10560
bin	1.7088e-05	9616
bin	1.71592e-05	10456
bin	1.72304e-05	10136
bin	1.73016e-05	9728
bin	1.73728e-05	9504
bin	1.7444e-05	10024
bin	1.75152e-05	9952
bin	1.75864e-05	10592
bin	1.76576e-05	11616
bin	1.77288e-05	9392
bin	1.78e-05	9488
bin	1.78712e-05	9688
bin	1.79424e-05	10032
bin	1.80136e-05	10736
bin	1.80848e-05	9776
bin	1.8156e-05	8816
bin	1.82272e-05	9728
bin	1.82984e-05	10400
bin	1.83696e-05	9648
bin	1.84408e-05	10504
bin	1.8512e-05	10272
bin	1.85832e-05	9608
bin	1.86544e-05	9784
bin	1.87256e-05	9912
bin	1.87968e-05	9688
bin	1.8868e-05	9528
bin	1.89392e-05	9000
bin	1.90104e-05	9768
bin	1.90816e-05	9816
bin	1.91528e-05	10400
bin	1.9224e-05	9656
bin	1.92952e-05	9512
bin	1.93664e-05	9552
bin	1.94376e-05	10072
bin	1.95088e-05	9296
bin	1.958e-05	9736
bin	1.96512e-05	9448
bin	1.97224e-05	9264
bin	1.97936e-05	8848
bin	1.98648e-05	9728
bin	1.9936e-05	9160
bin	2.00072e-05	10272
bin	2.00784e-05	9712
bin	2.01496e-05	9360
bin	2.02208e-05	9744
bin	2.0292e-05	10192
bin	2.03632e-05	9552
bin	2.04344e-05	9584
bin	2.05056e-05	9440
bin	2.05768e-05	9368
bin	2.0648e-05	9424
bin	2.07192e-05	9648
bin	2.07904e-05	9800
bin	2.08616e-05	9696
bin	2.09328e-05	10008
bin	2.1004e-05	9512
bin	2.10752e-05	9200
bin	2.11464e-05	9440
bin	2.12176e-05	10160
bin	2.12888e-05	9264
bin	2.136e-05	10448
bin	2.14312e-05	9008
bin	2.15024e-05	9528
bin	2.15736e-05	9816
bin	2.16448e-05	9440
bin	2.1716e-05	10520
bin	2.17872e-05	8504
bin	2.18584e-05	9072
bin	2.19296e-05	9632
bin	2.20008e-05	9544
bin	2.2072e-05	8856
bin	2.21432e-05	9256
bin	2.22144e-05	8680
bin	2.22856e-05	9352
bin	2.23568e-05	9552
bin	2.2428e-05	9360
bin	2.24992e-05	8688
bin	2.25704e-05	8824
bin	2.26416e-05	8224
bin	2.27128e-05	9032
bin	2.2784e-05	8528
bin	2.28552e-05	8984
bin	2.29264e-05	8368
bin	2.29976e-05	8592
bin	2.30688e-05	8728
bin	2.314e-05	9048
bin	2.32112e-05	9160
bin	2.32824e-05	8712
bin	2.33536e-05	8080
bin	2.34248e-05	12192
bin	2.3496e-05	8248
bin	2.35672e-05	8664
bin	2.36384e-05	8328
bin	2.37096e-05	8176
bin	2.37808e-05	7976
bin	2.3852e-05	7632
bin	2.39232e-05	12616
bin	2.39944e-05	8024
bin	2.40656e-05	7424
bin	2.41368e-05	7176
bin	2.4208e-05	12080
bin	2.42792e-05	7840
bin	2.43504e-05	8240
bin	2.44216e-05	11456
bin	2.44928e-05	7872
bin	2.4564e-05	7600
bin	2.46352e-05	7368
bin	2.47064e-05	8240
bin	2.47776e-05	7120
bin	2.48488e-05	7416
bin	2.492e-05	7328
bin	2.49912e-05	11200
bin	2.50624e-05	7560
bin	2.51336e-05	6656
bin	2.52048e-05	7296
bin	2.5276e-05	7216
bin	2.53472e-05	6592
bin	2.54184e-05	6872
bin	2.54896e-05	10280
bin	2.55608e-05	6920
bin	2.5632e-05	7616
bin	2.57032e-05	7120
bin	2.57744e-05	7384
bin	2.58456e-05	6096
bin	2.59168e-05	6496
bin	2.5988e-05	6616
bin	2.60592e-05	6560
bin	2.61304e-05	6376
bin	2.62016e-05	7136
bin	2.62728e-05	6504
bin	2.6344e-05	6400
bin	2.64152e-05	6312
bin	2.64864e-05	6536
bin	2.65576e-05	6200
bin	2.66288e-05	6224
bin	2.67e-05	6728
bin	2.67712e-05	6912
bin	2.68424e-05	6064
bin	2.69136e-05	6112
bin	2.69848e-05	5920
bin	2.7056e-05	5976
bin	2.71272e-05	6616
bin	2.71984e-05	6232
bin	2.72696e-05	6776
bin	2.73408e-05	6440
bin	2.7412e-05	6856
bin	2.74832e-05	5624
bin	2.75544e-05	6048
bin	2.76256e-05	5840
bin	2.76968e-05	6088
bin	2.7768e-05	6664
bin	2.78392e-05	5968
bin	2.79104e-05	5784
bin	2.79816e-05	6544
bin	2.80528e-05	5776
bin	2.8124e-05	5880
bin	2.81952e-05	6192
bin	2.82664e-05	6720
bin	2.83376e-05	5904
bin	2.84088e-05	5872
bin	2.848e-05	6376
bin	2.85512e-05	5936
bin	2.86224e-05	5384
bin	2.86936e-05	5936
bin	2.87648e-05	5592
bin	2.8836e-05	5640
bin	2.89072e-05	5488
bin	2.89784e-05	5280
bin	2.90496e-05	5592
bin	2.91208e-05	5040
bin	2.9192e-05	5480
bin	2.92632e-05	5672
bin	2.93344e-05	5520
bin	2.94056e-05	5248
bin	2.94768e-05	5400
bin	2.9548e-05	5536
bin	2.96192e-05	5208
bin	2.96904e-05	5744
bin	2.97616e-05	5880
bin	2.98328e-05	5184
bin	2.9904e-05	5832
bin	2.99752e-05	4784
bin	3.00464e-05	4624
bin	3.01176e-05	5024
bin	3.01888e-05	4832
bin	3.026e-05	5008
bin	3.03312e-05	5272
bin	3.04024e-05	5248
bin	3.04736e-05	4944
bin	3.05448e-05	4712
bin	3.0616e-05	4888
bin	3.06872e-05	4392
bin	3.07584e-05	5080
bin	3.08296e-05	4576
bin	3.09008e-05	4312
bin	3.0972e-05	5232
bin	3.10432e-05	4504
bin	3.11144e-05	4768
bin	3.11856e-05	4088
bin	3.12568e-05	4824
bin	3.1328e-05	4048
bin	3.13992e-05	4512
bin	3.14704e-05	4736
bin	3.15416e-05	4776
bin	3.16128e-05	4360
bin	3.1684e-05	4264
bin	3.17552e-05	3688
bin	3.18264e-05	4672
bin	3.18976e-05	4776
bin	3.19688e-05	4392
bin	3.204e-05	4704
bin	3.21112e-05	4256
bin	3.21824e-05	4184
bin	3.22536e-05	4160
bin	3.23248e-05	4048
bin	3.2396e-05	4032
bin	3.24672e-05	4208
bin	3.25384e-05	4104
bin	3.26096e-05	3944
bin	3.26808e-05	4464
bin	3.2752e-05	3920
bin	3.28232e-05	3592
bin	3.28944e-05	3856
bin	3.29656e-05	4232
bin	3.30368e-05	3736
bin	3.3108e-05	4056
bin	3.31792e-05	4464
bin	3.32504e-05	3608
bin	3.33216e-05	4152
bin	3.33928e-05	4536
bin	3.3464e-05	3832
bin	3.35352e-05	3544
bin	3.36064e-05	4040
bin	3.36776e-05	3400
bin	3.37488e-05	4032
bin	3.382e-05	3896
bin	3.38912e-05	3504
bin	3.39624e-05	3904
bin	3.40336e-05	3368
bin	3.41048e-05	3344
bin	3.4176e-05	3488
bin	3.42472e-05	4184
bin	3.43184e-05	3528
bin	3.43896e-05	3648
bin	3.44608e-05	4416
bin	3.4532e-05	4088
bin	3.46032e-05	3832
bin	3.46744e-05	4152
bin	3.47456e-05	3224
bin	3.48168e-05	3472
bin	3.4888e-05	3568
bin	3.49592e-05	3848
bin	3.50304e-05	4032
bin	3.51016e-05	3736
bin	3.51728e-05	3144
bin	3.5244e-05	3952
bin	3.53152e-05	3464
bin	3.53864e-05	3240
bin	3.54576e-05	3776
bin	3.55288e-05	4224
bin	3.56e-05	2544016
statistic Torus3d_bub.timer 	"Life Times"
field count 6291456
field mean 0.00017052200649037
field stddev 8.5912980193717e-05
field sum 1072.8317008659
field sqrsum 0.22937889631423
field min 6.05332258e-07
field max 0.000454001331836
bin	-INF	0
bin	0	4136
bin	8.544e-07	12696
bin	1.7088e-06	20960
bin	2.5632e-06	21016
bin	3.4176e-06	19000
bin	4.272e-06	14968
bin	5.1264e-06	17024
bin	5.9808e-06	14064
bin	6.8352e-06	19192
bin	7.6896e-06	17232
bin	8.544e-06	21304
bin	9.3984e-06	8984
bin	1.02528e-05	4984
bin	1.11072e-05	2952
bin	1.19616e-05	1864
bin	1.2816e-05	3768
bin	1.36704e-05	1752
bin	1.45248e-05	2808
bin	1.53792e-05	2696
bin	1.62336e-05	2688
bin	1.7088e-05	2768
bin	1.79424e-05	4736
bin	1.87968e-05	11928
bin	1.96512e-05	3816
bin	2.05056e-05	8904
bin	2.136e-05	5728
bin	2.22144e-05	12968
bin	2.30688e-05	15016
bin	2.39232e-05	38696
bin	2.47776e-05	26080
bin	2.5632e-05	11696
bin	2.64864e-05	12528
bin	2.73408e-05	10120
bin	2.81952e-05	3848
bin	2.90496e-05	3568
bin	2.9904e-05	3944
bin	3.07584e-05	7352
bin	3.16128e-05	4048
bin	3.24672e-05	3376
bin	3.33216e-05	3592
bin	3.4176e-05	5840
bin	3.50304e-05	3336
bin	3.58848e-05	7624
bin	3.67392e-05	8664
bin	3.75936e-05	7576
bin	3.8448e-05	11680
bin	3.93024e-05	11152
bin	4.01568e-05	14968
bin	4.10112e-05	14464
bin	4.18656e-05	11552
bin	4.272e-05	14968
bin	4.35744e-05	9552
bin	4.44288e-05	9520
bin	4.52832e-05	13064
bin	4.61376e-05	15032
bin	4.6992e-05	10384
bin	4.78464e-05	12272
bin	4.87008e-05	10872
bin	4.95552e-05	9872
bin	5.04096e-05	10464
bin	5.1264e-05	15936
bin	5.21184e-05	19656
bin	5.29728e-05	16576
bin	5.38272e-05	15992
bin	5.46816e-05	12856
bin	5.5536e-05	14136
bin	5.63904e-05	13288
bin	5.72448e-05	14928
bin	5.80992e-05	14232
bin	5.89536e-05	14400
bin	5.9808e-05	11632
bin	6.06624e-05	11664
bin	6.15168e-05	13016
bin	6.23712e-05	15864
bin	6.32256e-05	12648
bin	6.408e-05	13704
bin	6.49344e-05	13288
bin	6.57888e-05	15232
bin	6.66432e-05	16168
bin	6.74976e-05	13120
bin	6.8352e-05	15624
bin	6.92064e-05	16824
bin	7.00608e-05	15648
bin	7.09152e-05	14400
bin	7.17696e-05	14040
bin	7.2624e-05	11552
bin	7.34784e-05	13624
bin	7.43328e-05	11256
bin	7.51872e-05	11504
bin	7.60416e-05	14984
bin	7.6896e-05	11000
bin	7.77504e-05	11728
bin	7.86048e-05	13456
bin	7.94592e-05	13120
bin	8.03136e-05	10688
bin	8.1168e-05	12776
bin	8.20224e-05	12448
bin	8.28768e-05	14112
bin	8.37312e-05	10400
bin	8.45856e-05	12592
bin	8.544e-05	13744
bin	8.62944e-05	14640
bin	8.71488e-05	13144
bin	8.80032e-05	16856
bin	8.88576e-05	16952
bin	8.9712e-05	13160
bin	9.05664e-05	13984
bin	9.14208e-05	15064
bin	9.22752e-05	13552
bin	9.31296e-05	14448
bin	9.3984e-05	15240
bin	9.48384e-05	15576
bin	9.56928e-05	15176
bin	9.65472e-05	16888
bin	9.74016e-05	15448
bin	9.8256e-05	16912
bin	9.91104e-05	14744
bin	9.99648e-05	16256
bin	0.0001008192	15832
bin	0.0001016736	14368
bin	0.000102528	15280
bin	0.0001033824	16872
bin	0.0001042368	15864
bin	0.0001050912	14560
bin	0.0001059456	15912
bin	0.0001068	16496
bin	0.0001076544	14984
bin	0.0001085088	16352
bin	0.0001093632	17040
bin	0.0001102176	16176
bin	0.000111072	17352
bin	0.0001119264	17344
bin	0.0001127808	18520
bin	0.0001136352	18912
bin	0.0001144896	19336
bin	0.000115344	18872
bin	0.0001161984	18728
bin	0.0001170528	17520
bin	0.0001179072	19272
bin	0.0001187616	17944
bin	0.000119616	17048
bin	0.0001204704	16512
bin	0.0001213248	16656
bin	0.0001221792	17520
bin	0.0001230336	16328
bin	0.000123888	17968
bin	0.0001247424	16984
bin	0.0001255968	18720
bin	0.0001264512	18272
bin	0.0001273056	20240
bin	0.00012816	20488
bin	0.0001290144	18888
bin	0.0001298688	18992
bin	0.0001307232	20168
bin	0.0001315776	22624
bin	0.000132432	20432
bin	0.0001332864	18544
bin	0.0001341408	21104
bin	0.0001349952	20720
bin	0.0001358496	20304
bin	0.000136704	19632
bin	0.0001375584	20264
bin	0.0001384128	20008
bin	0.0001392672	22256
bin	0.0001401216	21472
bin	0.000140976	20760
bin	0.0001418304	20992
bin	0.0001426848	21248
bin	0.0001435392	21504
bin	0.0001443936	23296
bin	0.000145248	23296
bin	0.0001461024	23864
bin	0.0001469568	22624
bin	0.0001478112	22448
bin	0.0001486656	22032
bin	0.00014952	23536
bin	0.0001503744	23728
bin	0.0001512288	21264
bin	0.0001520832	22784
bin	0.0001529376	22928
bin	0.000153792	21736
bin	0.0001546464	24320
bin	0.0001555008	25568
bin	0.0001563552	23824
bin	0.0001572096	22336
bin	0.000158064	24240
bin	0.0001589184	24608
bin	0.0001597728	24992
bin	0.0001606272	23432
bin	0.0001614816	24008
bin	0.000162336	24640
bin	0.0001631904	24696
bin	0.0001640448	23776
bin	0.0001648992	23600
bin	0.0001657536	23816
bin	0.000166608	23608
bin	0.0001674624	24448
bin	0.0001683168	23424
bin	0.0001691712	23096
bin	0.0001700256	23080
bin	0.00017088	23832
bin	0.0001717344	23608
bin	0.0001725888	24488
bin	0.0001734432	23696
bin	0.0001742976	24384
bin	0.000175152	24728
bin	0.0001760064	24968
bin	0.0001768608	23064
bin	0.0001777152	25016
bin	0.0001785696	23640
bin	0.000179424	23784
bin	0.0001802784	25192
bin	0.0001811328	23536
bin	0.0001819872	22904
bin	0.0001828416	24672
bin	0.000183696	23552
bin	0.0001845504	23944
bin	0.0001854048	24664
bin	0.0001862592	23544
bin	0.0001871136	22864
bin	0.000187968	23264
bin	0.0001888224	23208
bin	0.0001896768	22648
bin	0.0001905312	23224
bin	0.0001913856	22560
bin	0.00019224	23384
bin	0.0001930944	24160
bin	0.0001939488	22704
bin	0.0001948032	22784
bin	0.0001956576	23224
bin	0.000196512	22648
bin	0.0001973664	22816
bin	0.0001982208	22440
bin	0.0001990752	22624
bin	0.0001999296	23128
bin	0.000200784	22968
bin	0.0002016384	23208
bin	0.0002024928	22032
bin	0.0002033472	22888
bin	0.0002042016	21744
bin	0.000205056	22960
bin	0.0002059104	22872
bin	0.0002067648	21568
bin	0.0002076192	21352
bin	0.0002084736	21952
bin	0.000209328	21544
bin	0.0002101824	21872
bin	0.0002110368	22272
bin	0.0002118912	21016
bin	0.0002127456	21216
bin	0.0002136	21072
bin	0.0002144544	21328
bin	0.0002153088	20696
bin	0.0002161632	22072
bin	0.0002170176	21120
bin	0.000217872	20888
bin	0.0002187264	21112
bin	0.0002195808	20088
bin	0.0002204352	21192
bin	0.0002212896	21016
bin	0.000222144	20648
bin	0.0002229984	20728
bin	0.0002238528	20120
bin	0.0002247072	20960
bin	0.0002255616	20704
bin	0.000226416	21160
bin	0.0002272704	20216
bin	0.0002281248	19728
bin	0.0002289792	19792
bin	0.0002298336	20200
bin	0.000230688	20264
bin	0.0002315424	19136
bin	0.0002323968	19264
bin	0.0002332512	20096
bin	0.0002341056	19040
bin	0.00023496	19672
bin	0.0002358144	19600
bin	0.0002366688	19200
bin	0.0002375232	18936
bin	0.0002383776	19192
bin	0.000239232	18592
bin	0.0002400864	18528
bin	0.0002409408	18776
bin	0.0002417952	18656
bin	0.0002426496	18568
bin	0.000243504	17888
bin	0.0002443584	17384
bin	0.0002452128	17848
bin	0.0002460672	17496
bin	0.0002469216	17808
bin	0.000247776	17072
bin	0.0002486304	16856
bin	0.0002494848	16096
bin	0.0002503392	16936
bin	0.0002511936	17000
bin	0.000252048	17064
bin	0.0002529024	16032
bin	0.0002537568	15832
bin	0.0002546112	15976
bin	0.0002554656	15872
bin	0.00025632	15680
bin	0.0002571744	15704
bin	0.0002580288	15328
bin	0.0002588832	14880
bin	0.0002597376	15256
bin	0.000260592	15216
bin	0.0002614464	15096
bin	0.0002623008	15128
bin	0.0002631552	14992
bin	0.0002640096	14616
bin	0.000264864	14648
bin	0.0002657184	14296
bin	0.0002665728	14200
bin	0.0002674272	13688
bin	0.0002682816	14096
bin	0.000269136	13720
bin	0.0002699904	13584
bin	0.0002708448	13024
bin	0.0002716992	13376
bin	0.0002725536	13024
bin	0.000273408	13216
bin	0.0002742624	12896
bin	0.0002751168	12624
bin	0.0002759712	12048
bin	0.0002768256	12464
bin	0.00027768	12320
bin	0.0002785344	12496
bin	0.0002793888	12232
bin	0.0002802432	12272
bin	0.0002810976	11592
bin	0.000281952	12520
bin	0.0002828064	12064
bin	0.0002836608	11768
bin	0.0002845152	11584
bin	0.0002853696	11040
bin	0.000286224	10560
bin	0.0002870784	10664
bin	0.0002879328	10912
bin	0.0002887872	10504
bin	0.0002896416	10792
bin	0.000290496	10568
bin	0.0002913504	10008
bin	0.0002922048	10152
bin	0.0002930592	9848
bin	0.0002939136	9936
bin	0.000294768	9624
bin	0.0002956224	9240
bin	0.0002964768	9656
bin	0.0002973312	9480
bin	0.0002981856	9512
bin	0.00029904	8728
bin	0.0002998944	9064
bin	0.0003007488	8856
bin	0.0003016032	8792
bin	0.0003024576	8496
bin	0.000303312	8656
bin	0.0003041664	8320
bin	0.0003050208	7776
bin	0.0003058752	8064
bin	0.0003067296	8024
bin	0.000307584	8352
bin	0.0003084384	7920
bin	0.0003092928	7880
bin	0.0003101472	7520
bin	0.0003110016	7456
bin	0.000311856	6944
bin	0.0003127104	7576
bin	0.0003135648	7432
bin	0.0003144192	7152
bin	0.0003152736	6752
bin	0.000316128	6864
bin	0.0003169824	6864
bin	0.0003178368	7080
bin	0.0003186912	6856
bin	0.0003195456	6424
bin	0.0003204	6208
bin	0.0003212544	6432
bin	0.0003221088	6432
bin	0.0003229632	6384
bin	0.0003238176	5848
bin	0.000324672	5680
bin	0.0003255264	5512
bin	0.0003263808	5736
bin	0.0003272352	5896
bin	0.0003280896	5768
bin	0.000328944	5192
bin	0.0003297984	5008
bin	0.0003306528	5208
bin	0.0003315072	5048
bin	0.0003323616	5408
bin	0.000333216	5072
bin	0.0003340704	4992
bin	0.0003349248	4528
bin	0.0003357792	4648
bin	0.0003366336	4448
bin	0.000337488	4696
bin	0.0003383424	4280
bin	0.0003391968	4264
bin	0.0003400512	4040
bin	0.0003409056	4264
bin	0.00034176	3800
bin	0.0003426144	3952
bin	0.0003434688	3632
bin	0.0003443232	3656
bin	0.0003451776	3528
bin	0.000346032	3616
bin	0.0003468864	3248
bin	0.0003477408	3488
bin	0.0003485952	3136
bin	0.0003494496	2888
bin	0.000350304	2824
bin	0.0003511584	3008
bin	0.0003520128	2912
bin	0.0003528672	2896
bin	0.0003537216	2544
bin	0.000354576	2352
bin	0.0003554304	2344
bin	0.0003562848	2160
bin	0.0003571392	2168
bin	0.0003579936	2400
bin	0.000358848	2384
bin	0.0003597024	2128
bin	0.0003605568	1944
bin	0.0003614112	1832
bin	0.0003622656	1944
bin	0.00036312	1864
bin	0.0003639744	1800
bin	0.0003648288	1840
bin	0.0003656832	1752
bin	0.0003665376	1416
bin	0.000367392	1528
bin	0.0003682464	1400
bin	0.0003691008	1488
bin	0.0003699552	1432
bin	0.0003708096	1336
bin	0.000371664	1176
bin	0.0003725184	1280
bin	0.0003733728	1048
bin	0.0003742272	1208
bin	0.0003750816	1216
bin	0.000375936	1144
bin	0.0003767904	1096
bin	0.0003776448	960
bin	0.0003784992	872
bin	0.0003793536	904
bin	0.000380208	872
bin	0.0003810624	696
bin	0.0003819168	744
bin	0.0003827712	688
bin	0.0003836256	704
bin	0.00038448	608
bin	0.0003853344	744
bin	0.0003861888	640
bin	0.0003870432	656
bin	0.0003878976	560
bin	0.000388752	552
bin	0.0003896064	536
bin	0.0003904608	696
bin	0.0003913152	424
bin	0.0003921696	496
bin	0.000393024	416
bin	0.0003938784	488
bin	0.0003947328	400
bin	0.0003955872	392
bin	0.0003964416	280
bin	0.000397296	360
bin	0.0003981504	280
bin	0.0003990048	352
bin	0.0003998592	328
bin	0.0004007136	288
bin	0.000401568	200
bin	0.0004024224	280
bin	0.0004032768	304
bin	0.0004041312	328
bin	0.0004049856	248
bin	0.00040584	168
bin	0.0004066944	144
bin	0.0004075488	176
bin	0.0004084032	248
bin	0.0004092576	240
bin	0.000410112	232
bin	0.0004109664	200
bin	0.0004118208	152
bin	0.0004126752	152
bin	0.0004135296	272
bin	0.000414384	272
bin	0.0004152384	176
bin	0.0004160928	128
bin	0.0004169472	144
bin	0.0004178016	152
bin	0.000418656	272
bin	0.0004195104	208
bin	0.0004203648	112
bin	0.0004212192	88
bin	0.0004220736	112
bin	0.000422928	152
bin	0.0004237824	184
bin	0.0004246368	168
bin	0.0004254912	80
bin	0.0004263456	64
bin	0.0004272	1408
