version 2
run Butterfly-185-20120709-15:16:43-24312
attr alg 1
attr buf 8
attr configname Butterfly
attr datetime 20120709-15:16:43
attr delta 2.2
attr experiment Butterfly
attr ext false
attr inifile altro.ini
attr iterationvars "$buf=8, $ext=false, $ofedge=2, $delta=2.2, $alg=1"
attr iterationvars2 "$buf=8, $ext=false, $ofedge=2, $delta=2.2, $alg=1, $repetition=0"
attr measurement "$buf=8, $ext=false, $ofedge=2, $delta=2.2, $alg=1"
attr network Torus3d_bub
attr ofedge 2
attr processid 24312
attr repetition 0
attr replication #0
attr resultdir altro-results
attr runnumber 185
attr seedset 185

scalar . 	alg 	1
scalar . 	buf 	8
scalar . 	delta 	2.2
scalar . 	ofedge 	2
scalar Torus3d_bub.timer 	#endTime 	0.001023920331773
scalar Torus3d_bub.timer 	#totalHops 	46810501
scalar Torus3d_bub.timer 	#totalPacks 	6291456
scalar Torus3d_bub.timer 	#totalDerouted 	3932425
scalar Torus3d_bub.timer 	#totalOutFlanked 	3932425
scalar Torus3d_bub.timer 	#totalCQRed 	0
scalar Torus3d_bub.timer 	#LB 	0.000786432
scalar Torus3d_bub.timer 	#ratio 	0.76805975581931
statistic Torus3d_bub.timer 	"Hop Times"
field count 6291456
field mean 5.9240835117209e-05
field stddev 8.2226120931527e-05
field sum 372.71110754318
field sqrsum 0.064617093639765
field min 5.2e-07
field max 0.000766696030289
bin	-INF	0
bin	0	0
bin	7.12e-08	0
bin	1.424e-07	0
bin	2.136e-07	0
bin	2.848e-07	0
bin	3.56e-07	0
bin	4.272e-07	0
bin	4.984e-07	4096
bin	5.696e-07	0
bin	6.408e-07	2048
bin	7.12e-07	4096
bin	7.832e-07	0
bin	8.544e-07	2
bin	9.256e-07	4098
bin	9.968e-07	8193
bin	1.068e-06	7
bin	1.1392e-06	2077
bin	1.2104e-06	3160
bin	1.2816e-06	6614
bin	1.3528e-06	10924
bin	1.424e-06	7549
bin	1.4952e-06	6632
bin	1.5664e-06	14029
bin	1.6376e-06	5336
bin	1.7088e-06	11986
bin	1.78e-06	15290
bin	1.8512e-06	10031
bin	1.9224e-06	11376
bin	1.9936e-06	10704
bin	2.0648e-06	16857
bin	2.136e-06	12299
bin	2.2072e-06	9637
bin	2.2784e-06	14830
bin	2.3496e-06	11782
bin	2.4208e-06	13920
bin	2.492e-06	15414
bin	2.5632e-06	14310
bin	2.6344e-06	13874
bin	2.7056e-06	6115
bin	2.7768e-06	6722
bin	2.848e-06	9684
bin	2.9192e-06	6757
bin	2.9904e-06	4686
bin	3.0616e-06	12089
bin	3.1328e-06	5552
bin	3.204e-06	5904
bin	3.2752e-06	5350
bin	3.3464e-06	10537
bin	3.4176e-06	9730
bin	3.4888e-06	6976
bin	3.56e-06	5590
bin	3.6312e-06	10513
bin	3.7024e-06	5753
bin	3.7736e-06	6388
bin	3.8448e-06	9705
bin	3.916e-06	5999
bin	3.9872e-06	5285
bin	4.0584e-06	5436
bin	4.1296e-06	9377
bin	4.2008e-06	5275
bin	4.272e-06	5473
bin	4.3432e-06	5105
bin	4.4144e-06	9126
bin	4.4856e-06	5099
bin	4.5568e-06	4751
bin	4.628e-06	9298
bin	4.6992e-06	5459
bin	4.7704e-06	4945
bin	4.8416e-06	4944
bin	4.9128e-06	9158
bin	4.984e-06	6991
bin	5.0552e-06	5207
bin	5.1264e-06	5068
bin	5.1976e-06	9233
bin	5.2688e-06	5207
bin	5.34e-06	5009
bin	5.4112e-06	9300
bin	5.4824e-06	5043
bin	5.5536e-06	5129
bin	5.6248e-06	5177
bin	5.696e-06	9118
bin	5.7672e-06	5165
bin	5.8384e-06	5489
bin	5.9096e-06	5056
bin	5.9808e-06	9395
bin	6.052e-06	5264
bin	6.1232e-06	5183
bin	6.1944e-06	9486
bin	6.2656e-06	5485
bin	6.3368e-06	5280
bin	6.408e-06	5425
bin	6.4792e-06	9414
bin	6.5504e-06	5422
bin	6.6216e-06	5592
bin	6.6928e-06	5393
bin	6.764e-06	9474
bin	6.8352e-06	5386
bin	6.9064e-06	5229
bin	6.9776e-06	9526
bin	7.0488e-06	5644
bin	7.12e-06	5445
bin	7.1912e-06	5333
bin	7.2624e-06	9587
bin	7.3336e-06	5435
bin	7.4048e-06	5535
bin	7.476e-06	5326
bin	7.5472e-06	9519
bin	7.6184e-06	5501
bin	7.6896e-06	5277
bin	7.7608e-06	9514
bin	7.832e-06	5467
bin	7.9032e-06	5365
bin	7.9744e-06	5254
bin	8.0456e-06	7345
bin	8.1168e-06	5510
bin	8.188e-06	5629
bin	8.2592e-06	5217
bin	8.3304e-06	9718
bin	8.4016e-06	5563
bin	8.4728e-06	5441
bin	8.544e-06	9651
bin	8.6152e-06	5646
bin	8.6864e-06	5445
bin	8.7576e-06	5622
bin	8.8288e-06	9698
bin	8.9e-06	5493
bin	8.9712e-06	5704
bin	9.0424e-06	5501
bin	9.1136e-06	7703
bin	9.1848e-06	5784
bin	9.256e-06	5556
bin	9.3272e-06	9615
bin	9.3984e-06	5952
bin	9.4696e-06	5738
bin	9.5408e-06	5697
bin	9.612e-06	9954
bin	9.6832e-06	5652
bin	9.7544e-06	5738
bin	9.8256e-06	5751
bin	9.8968e-06	5731
bin	9.968e-06	5893
bin	1.00392e-05	5748
bin	1.01104e-05	9663
bin	1.01816e-05	5951
bin	1.02528e-05	5727
bin	1.0324e-05	5625
bin	1.03952e-05	7978
bin	1.04664e-05	5848
bin	1.05376e-05	5839
bin	1.06088e-05	5677
bin	1.068e-05	7890
bin	1.07512e-05	5904
bin	1.08224e-05	5760
bin	1.08936e-05	7855
bin	1.09648e-05	5902
bin	1.1036e-05	5821
bin	1.11072e-05	5761
bin	1.11784e-05	9978
bin	1.12496e-05	5729
bin	1.13208e-05	5915
bin	1.1392e-05	5624
bin	1.14632e-05	9955
bin	1.15344e-05	5739
bin	1.16056e-05	5741
bin	1.16768e-05	9771
bin	1.1748e-05	6000
bin	1.18192e-05	5896
bin	1.18904e-05	5734
bin	1.19616e-05	9902
bin	1.20328e-05	5808
bin	1.2104e-05	5975
bin	1.21752e-05	5872
bin	1.22464e-05	9935
bin	1.23176e-05	5999
bin	1.23888e-05	5763
bin	1.246e-05	7877
bin	1.25312e-05	6065
bin	1.26024e-05	5913
bin	1.26736e-05	5880
bin	1.27448e-05	5870
bin	1.2816e-05	5813
bin	1.28872e-05	5916
bin	1.29584e-05	5771
bin	1.30296e-05	5956
bin	1.31008e-05	5985
bin	1.3172e-05	5734
bin	1.32432e-05	5696
bin	1.33144e-05	5904
bin	1.33856e-05	5857
bin	1.34568e-05	5726
bin	1.3528e-05	5943
bin	1.35992e-05	5772
bin	1.36704e-05	5966
bin	1.37416e-05	5748
bin	1.38128e-05	5884
bin	1.3884e-05	6023
bin	1.39552e-05	5791
bin	1.40264e-05	5944
bin	1.40976e-05	6013
bin	1.41688e-05	5940
bin	1.424e-05	5935
bin	1.43112e-05	6043
bin	1.43824e-05	6006
bin	1.44536e-05	6050
bin	1.45248e-05	5944
bin	1.4596e-05	5942
bin	1.46672e-05	6077
bin	1.47384e-05	5987
bin	1.48096e-05	5915
bin	1.48808e-05	6180
bin	1.4952e-05	6095
bin	1.50232e-05	5884
bin	1.50944e-05	6097
bin	1.51656e-05	5933
bin	1.52368e-05	5964
bin	1.5308e-05	6026
bin	1.53792e-05	5985
bin	1.54504e-05	6097
bin	1.55216e-05	6038
bin	1.55928e-05	5884
bin	1.5664e-05	6120
bin	1.57352e-05	6101
bin	1.58064e-05	5974
bin	1.58776e-05	5983
bin	1.59488e-05	6108
bin	1.602e-05	6035
bin	1.60912e-05	6163
bin	1.61624e-05	6076
bin	1.62336e-05	6238
bin	1.63048e-05	6067
bin	1.6376e-05	6085
bin	1.64472e-05	6264
bin	1.65184e-05	6139
bin	1.65896e-05	6142
bin	1.66608e-05	6086
bin	1.6732e-05	6204
bin	1.68032e-05	6313
bin	1.68744e-05	6205
bin	1.69456e-05	6042
bin	1.70168e-05	6259
bin	1.7088e-05	6097
bin	1.71592e-05	6272
bin	1.72304e-05	6278
bin	1.73016e-05	6144
bin	1.73728e-05	6237
bin	1.7444e-05	6187
bin	1.75152e-05	6264
bin	1.75864e-05	6254
bin	1.76576e-05	6023
bin	1.77288e-05	6185
bin	1.78e-05	6325
bin	1.78712e-05	6087
bin	1.79424e-05	6241
bin	1.80136e-05	6446
bin	1.80848e-05	6230
bin	1.8156e-05	6263
bin	1.82272e-05	6247
bin	1.82984e-05	6235
bin	1.83696e-05	6247
bin	1.84408e-05	6195
bin	1.8512e-05	6278
bin	1.85832e-05	6360
bin	1.86544e-05	6385
bin	1.87256e-05	6285
bin	1.87968e-05	6547
bin	1.8868e-05	6393
bin	1.89392e-05	6425
bin	1.90104e-05	6260
bin	1.90816e-05	6317
bin	1.91528e-05	6369
bin	1.9224e-05	6538
bin	1.92952e-05	6470
bin	1.93664e-05	6351
bin	1.94376e-05	6231
bin	1.95088e-05	6437
bin	1.958e-05	6649
bin	1.96512e-05	6426
bin	1.97224e-05	6402
bin	1.97936e-05	6381
bin	1.98648e-05	6343
bin	1.9936e-05	6273
bin	2.00072e-05	6346
bin	2.00784e-05	6317
bin	2.01496e-05	6391
bin	2.02208e-05	6371
bin	2.0292e-05	6412
bin	2.03632e-05	6523
bin	2.04344e-05	6268
bin	2.05056e-05	6246
bin	2.05768e-05	6372
bin	2.0648e-05	6472
bin	2.07192e-05	6471
bin	2.07904e-05	6537
bin	2.08616e-05	6348
bin	2.09328e-05	6434
bin	2.1004e-05	6411
bin	2.10752e-05	6302
bin	2.11464e-05	6499
bin	2.12176e-05	6434
bin	2.12888e-05	6487
bin	2.136e-05	6437
bin	2.14312e-05	6416
bin	2.15024e-05	6467
bin	2.15736e-05	6490
bin	2.16448e-05	6375
bin	2.1716e-05	6487
bin	2.17872e-05	6322
bin	2.18584e-05	6271
bin	2.19296e-05	6517
bin	2.20008e-05	6337
bin	2.2072e-05	6507
bin	2.21432e-05	6460
bin	2.22144e-05	6458
bin	2.22856e-05	6597
bin	2.23568e-05	6515
bin	2.2428e-05	6472
bin	2.24992e-05	6638
bin	2.25704e-05	6621
bin	2.26416e-05	6569
bin	2.27128e-05	6668
bin	2.2784e-05	6780
bin	2.28552e-05	6620
bin	2.29264e-05	6627
bin	2.29976e-05	6509
bin	2.30688e-05	6527
bin	2.314e-05	6548
bin	2.32112e-05	6401
bin	2.32824e-05	6646
bin	2.33536e-05	6562
bin	2.34248e-05	6585
bin	2.3496e-05	6814
bin	2.35672e-05	6520
bin	2.36384e-05	6689
bin	2.37096e-05	6769
bin	2.37808e-05	6654
bin	2.3852e-05	6621
bin	2.39232e-05	6755
bin	2.39944e-05	6548
bin	2.40656e-05	6752
bin	2.41368e-05	6618
bin	2.4208e-05	6458
bin	2.42792e-05	6736
bin	2.43504e-05	6664
bin	2.44216e-05	6513
bin	2.44928e-05	6567
bin	2.4564e-05	6614
bin	2.46352e-05	6624
bin	2.47064e-05	6588
bin	2.47776e-05	6617
bin	2.48488e-05	6736
bin	2.492e-05	6506
bin	2.49912e-05	6629
bin	2.50624e-05	6789
bin	2.51336e-05	6620
bin	2.52048e-05	6581
bin	2.5276e-05	6494
bin	2.53472e-05	6495
bin	2.54184e-05	6568
bin	2.54896e-05	6590
bin	2.55608e-05	6415
bin	2.5632e-05	6566
bin	2.57032e-05	6458
bin	2.57744e-05	6466
bin	2.58456e-05	6499
bin	2.59168e-05	6565
bin	2.5988e-05	6463
bin	2.60592e-05	6440
bin	2.61304e-05	6589
bin	2.62016e-05	6641
bin	2.62728e-05	6625
bin	2.6344e-05	6521
bin	2.64152e-05	6797
bin	2.64864e-05	6604
bin	2.65576e-05	6462
bin	2.66288e-05	6594
bin	2.67e-05	6659
bin	2.67712e-05	6522
bin	2.68424e-05	6626
bin	2.69136e-05	6602
bin	2.69848e-05	6557
bin	2.7056e-05	6770
bin	2.71272e-05	6577
bin	2.71984e-05	6739
bin	2.72696e-05	6614
bin	2.73408e-05	6546
bin	2.7412e-05	6525
bin	2.74832e-05	6755
bin	2.75544e-05	6687
bin	2.76256e-05	6691
bin	2.76968e-05	6613
bin	2.7768e-05	6768
bin	2.78392e-05	6616
bin	2.79104e-05	6528
bin	2.79816e-05	6805
bin	2.80528e-05	6594
bin	2.8124e-05	6883
bin	2.81952e-05	6582
bin	2.82664e-05	6737
bin	2.83376e-05	6785
bin	2.84088e-05	6502
bin	2.848e-05	6670
bin	2.85512e-05	6678
bin	2.86224e-05	6744
bin	2.86936e-05	6511
bin	2.87648e-05	6772
bin	2.8836e-05	6502
bin	2.89072e-05	6594
bin	2.89784e-05	6626
bin	2.90496e-05	6745
bin	2.91208e-05	6657
bin	2.9192e-05	6470
bin	2.92632e-05	6450
bin	2.93344e-05	6648
bin	2.94056e-05	6793
bin	2.94768e-05	6611
bin	2.9548e-05	6907
bin	2.96192e-05	6710
bin	2.96904e-05	6550
bin	2.97616e-05	6693
bin	2.98328e-05	6722
bin	2.9904e-05	6591
bin	2.99752e-05	6623
bin	3.00464e-05	6587
bin	3.01176e-05	6549
bin	3.01888e-05	6673
bin	3.026e-05	6393
bin	3.03312e-05	6771
bin	3.04024e-05	6525
bin	3.04736e-05	6505
bin	3.05448e-05	6611
bin	3.0616e-05	6608
bin	3.06872e-05	6682
bin	3.07584e-05	6442
bin	3.08296e-05	6823
bin	3.09008e-05	6669
bin	3.0972e-05	6731
bin	3.10432e-05	6563
bin	3.11144e-05	6800
bin	3.11856e-05	6659
bin	3.12568e-05	6458
bin	3.1328e-05	6622
bin	3.13992e-05	6617
bin	3.14704e-05	6744
bin	3.15416e-05	6505
bin	3.16128e-05	6575
bin	3.1684e-05	6728
bin	3.17552e-05	6579
bin	3.18264e-05	6456
bin	3.18976e-05	6777
bin	3.19688e-05	6528
bin	3.204e-05	6582
bin	3.21112e-05	6534
bin	3.21824e-05	6462
bin	3.22536e-05	6695
bin	3.23248e-05	6449
bin	3.2396e-05	6664
bin	3.24672e-05	6757
bin	3.25384e-05	6696
bin	3.26096e-05	6564
bin	3.26808e-05	6780
bin	3.2752e-05	6513
bin	3.28232e-05	6419
bin	3.28944e-05	6592
bin	3.29656e-05	6632
bin	3.30368e-05	6782
bin	3.3108e-05	6469
bin	3.31792e-05	6611
bin	3.32504e-05	6603
bin	3.33216e-05	6608
bin	3.33928e-05	6462
bin	3.3464e-05	6856
bin	3.35352e-05	6714
bin	3.36064e-05	6521
bin	3.36776e-05	6537
bin	3.37488e-05	6648
bin	3.382e-05	6799
bin	3.38912e-05	6543
bin	3.39624e-05	6638
bin	3.40336e-05	6752
bin	3.41048e-05	6700
bin	3.4176e-05	6472
bin	3.42472e-05	6718
bin	3.43184e-05	6777
bin	3.43896e-05	6710
bin	3.44608e-05	6666
bin	3.4532e-05	6634
bin	3.46032e-05	6663
bin	3.46744e-05	6516
bin	3.47456e-05	6656
bin	3.48168e-05	6589
bin	3.4888e-05	6570
bin	3.49592e-05	6554
bin	3.50304e-05	6851
bin	3.51016e-05	6616
bin	3.51728e-05	6553
bin	3.5244e-05	6615
bin	3.53152e-05	6799
bin	3.53864e-05	6752
bin	3.54576e-05	6539
bin	3.55288e-05	6656
bin	3.56e-05	3028552
statistic Torus3d_bub.timer 	"Life Times"
field count 6291456
field mean 0.00026420460190354
field stddev 0.0001607543572014
field sum 1662.2316278736
field sqrsum 0.60175279510009
field min 5.2e-07
field max 0.000812184363592
bin	-INF	0
bin	0	8192
bin	8.544e-07	12288
bin	1.7088e-06	19456
bin	2.5632e-06	25612
bin	3.4176e-06	24643
bin	4.272e-06	18721
bin	5.1264e-06	20924
bin	5.9808e-06	21347
bin	6.8352e-06	17629
bin	7.6896e-06	19658
bin	8.544e-06	18803
bin	9.3984e-06	22300
bin	1.02528e-05	17107
bin	1.11072e-05	23600
bin	1.19616e-05	30941
bin	1.2816e-05	17752
bin	1.36704e-05	14069
bin	1.45248e-05	13566
bin	1.53792e-05	13959
bin	1.62336e-05	9064
bin	1.7088e-05	5036
bin	1.79424e-05	12343
bin	1.87968e-05	9909
bin	1.96512e-05	11368
bin	2.05056e-05	11117
bin	2.136e-05	7658
bin	2.22144e-05	7656
bin	2.30688e-05	8410
bin	2.39232e-05	8616
bin	2.47776e-05	9009
bin	2.5632e-05	8763
bin	2.64864e-05	8358
bin	2.73408e-05	8784
bin	2.81952e-05	9676
bin	2.90496e-05	9098
bin	2.9904e-05	9232
bin	3.07584e-05	9364
bin	3.16128e-05	9549
bin	3.24672e-05	9556
bin	3.33216e-05	9026
bin	3.4176e-05	9382
bin	3.50304e-05	9396
bin	3.58848e-05	9038
bin	3.67392e-05	9351
bin	3.75936e-05	9574
bin	3.8448e-05	9251
bin	3.93024e-05	9543
bin	4.01568e-05	9496
bin	4.10112e-05	9698
bin	4.18656e-05	9940
bin	4.272e-05	9703
bin	4.35744e-05	10195
bin	4.44288e-05	10326
bin	4.52832e-05	9920
bin	4.61376e-05	10175
bin	4.6992e-05	10346
bin	4.78464e-05	10122
bin	4.87008e-05	10362
bin	4.95552e-05	10194
bin	5.04096e-05	10329
bin	5.1264e-05	10340
bin	5.21184e-05	10288
bin	5.29728e-05	10141
bin	5.38272e-05	10280
bin	5.46816e-05	10027
bin	5.5536e-05	10159
bin	5.63904e-05	10034
bin	5.72448e-05	10197
bin	5.80992e-05	10067
bin	5.89536e-05	9899
bin	5.9808e-05	9923
bin	6.06624e-05	10104
bin	6.15168e-05	9902
bin	6.23712e-05	9938
bin	6.32256e-05	9987
bin	6.408e-05	9694
bin	6.49344e-05	9835
bin	6.57888e-05	9558
bin	6.66432e-05	9436
bin	6.74976e-05	9375
bin	6.8352e-05	9251
bin	6.92064e-05	9189
bin	7.00608e-05	9367
bin	7.09152e-05	9116
bin	7.17696e-05	9227
bin	7.2624e-05	9004
bin	7.34784e-05	9130
bin	7.43328e-05	9142
bin	7.51872e-05	8978
bin	7.60416e-05	9026
bin	7.6896e-05	8982
bin	7.77504e-05	8806
bin	7.86048e-05	8834
bin	7.94592e-05	9048
bin	8.03136e-05	8847
bin	8.1168e-05	8971
bin	8.20224e-05	8884
bin	8.28768e-05	8883
bin	8.37312e-05	8952
bin	8.45856e-05	8699
bin	8.544e-05	8866
bin	8.62944e-05	8904
bin	8.71488e-05	8803
bin	8.80032e-05	8831
bin	8.88576e-05	8925
bin	8.9712e-05	8884
bin	9.05664e-05	8787
bin	9.14208e-05	8695
bin	9.22752e-05	8419
bin	9.31296e-05	8688
bin	9.3984e-05	8549
bin	9.48384e-05	8604
bin	9.56928e-05	8450
bin	9.65472e-05	8509
bin	9.74016e-05	8538
bin	9.8256e-05	8790
bin	9.91104e-05	8517
bin	9.99648e-05	8754
bin	0.0001008192	8540
bin	0.0001016736	8494
bin	0.000102528	8772
bin	0.0001033824	8664
bin	0.0001042368	8728
bin	0.0001050912	8780
bin	0.0001059456	8623
bin	0.0001068	8632
bin	0.0001076544	8725
bin	0.0001085088	9054
bin	0.0001093632	8850
bin	0.0001102176	8838
bin	0.000111072	8935
bin	0.0001119264	9017
bin	0.0001127808	8831
bin	0.0001136352	8927
bin	0.0001144896	9004
bin	0.000115344	9107
bin	0.0001161984	9006
bin	0.0001170528	9005
bin	0.0001179072	9127
bin	0.0001187616	9032
bin	0.000119616	9042
bin	0.0001204704	9028
bin	0.0001213248	9006
bin	0.0001221792	9161
bin	0.0001230336	9212
bin	0.000123888	8932
bin	0.0001247424	8853
bin	0.0001255968	8988
bin	0.0001264512	9061
bin	0.0001273056	8997
bin	0.00012816	9197
bin	0.0001290144	9004
bin	0.0001298688	9116
bin	0.0001307232	9063
bin	0.0001315776	9032
bin	0.000132432	9110
bin	0.0001332864	9291
bin	0.0001341408	9106
bin	0.0001349952	9198
bin	0.0001358496	9170
bin	0.000136704	9062
bin	0.0001375584	9036
bin	0.0001384128	8934
bin	0.0001392672	8968
bin	0.0001401216	9216
bin	0.000140976	9057
bin	0.0001418304	9326
bin	0.0001426848	9256
bin	0.0001435392	9201
bin	0.0001443936	9505
bin	0.000145248	9423
bin	0.0001461024	9647
bin	0.0001469568	9624
bin	0.0001478112	9542
bin	0.0001486656	9577
bin	0.00014952	9548
bin	0.0001503744	9493
bin	0.0001512288	9715
bin	0.0001520832	9473
bin	0.0001529376	9592
bin	0.000153792	9525
bin	0.0001546464	9512
bin	0.0001555008	9428
bin	0.0001563552	9502
bin	0.0001572096	9651
bin	0.000158064	9660
bin	0.0001589184	9587
bin	0.0001597728	9294
bin	0.0001606272	9384
bin	0.0001614816	9368
bin	0.000162336	9574
bin	0.0001631904	9604
bin	0.0001640448	9702
bin	0.0001648992	9646
bin	0.0001657536	9653
bin	0.000166608	9646
bin	0.0001674624	9516
bin	0.0001683168	9690
bin	0.0001691712	9617
bin	0.0001700256	9712
bin	0.00017088	9788
bin	0.0001717344	9806
bin	0.0001725888	9814
bin	0.0001734432	9902
bin	0.0001742976	9825
bin	0.000175152	9558
bin	0.0001760064	9874
bin	0.0001768608	9760
bin	0.0001777152	9867
bin	0.0001785696	9882
bin	0.000179424	9995
bin	0.0001802784	9738
bin	0.0001811328	9865
bin	0.0001819872	9867
bin	0.0001828416	10031
bin	0.000183696	10101
bin	0.0001845504	9928
bin	0.0001854048	10274
bin	0.0001862592	10131
bin	0.0001871136	10143
bin	0.000187968	10192
bin	0.0001888224	10030
bin	0.0001896768	10177
bin	0.0001905312	10172
bin	0.0001913856	10333
bin	0.00019224	10372
bin	0.0001930944	10243
bin	0.0001939488	10280
bin	0.0001948032	10183
bin	0.0001956576	10343
bin	0.000196512	10201
bin	0.0001973664	10208
bin	0.0001982208	10058
bin	0.0001990752	10356
bin	0.0001999296	10182
bin	0.000200784	10362
bin	0.0002016384	10425
bin	0.0002024928	10143
bin	0.0002033472	10252
bin	0.0002042016	10294
bin	0.000205056	10233
bin	0.0002059104	10548
bin	0.0002067648	10403
bin	0.0002076192	10387
bin	0.0002084736	10501
bin	0.000209328	10456
bin	0.0002101824	10415
bin	0.0002110368	10713
bin	0.0002118912	10523
bin	0.0002127456	10445
bin	0.0002136	10534
bin	0.0002144544	10236
bin	0.0002153088	10495
bin	0.0002161632	10634
bin	0.0002170176	10436
bin	0.000217872	10577
bin	0.0002187264	10697
bin	0.0002195808	10564
bin	0.0002204352	10615
bin	0.0002212896	10793
bin	0.000222144	10795
bin	0.0002229984	10905
bin	0.0002238528	10788
bin	0.0002247072	10638
bin	0.0002255616	10664
bin	0.000226416	10873
bin	0.0002272704	10904
bin	0.0002281248	10461
bin	0.0002289792	10709
bin	0.0002298336	10634
bin	0.000230688	10632
bin	0.0002315424	10725
bin	0.0002323968	10509
bin	0.0002332512	10480
bin	0.0002341056	10802
bin	0.00023496	10948
bin	0.0002358144	10870
bin	0.0002366688	10866
bin	0.0002375232	10866
bin	0.0002383776	10583
bin	0.000239232	10555
bin	0.0002400864	10621
bin	0.0002409408	10622
bin	0.0002417952	10634
bin	0.0002426496	10699
bin	0.000243504	10651
bin	0.0002443584	10724
bin	0.0002452128	10763
bin	0.0002460672	10852
bin	0.0002469216	10587
bin	0.000247776	10786
bin	0.0002486304	10581
bin	0.0002494848	10767
bin	0.0002503392	10600
bin	0.0002511936	10838
bin	0.000252048	10704
bin	0.0002529024	10648
bin	0.0002537568	10645
bin	0.0002546112	10649
bin	0.0002554656	10790
bin	0.00025632	10627
bin	0.0002571744	10534
bin	0.0002580288	10586
bin	0.0002588832	10654
bin	0.0002597376	10696
bin	0.000260592	10608
bin	0.0002614464	10579
bin	0.0002623008	10612
bin	0.0002631552	10727
bin	0.0002640096	10778
bin	0.000264864	10777
bin	0.0002657184	10708
bin	0.0002665728	10628
bin	0.0002674272	10641
bin	0.0002682816	10604
bin	0.000269136	10625
bin	0.0002699904	10639
bin	0.0002708448	10630
bin	0.0002716992	10596
bin	0.0002725536	10798
bin	0.000273408	10738
bin	0.0002742624	10543
bin	0.0002751168	10546
bin	0.0002759712	10391
bin	0.0002768256	10333
bin	0.00027768	10627
bin	0.0002785344	10332
bin	0.0002793888	10367
bin	0.0002802432	10402
bin	0.0002810976	10359
bin	0.000281952	10441
bin	0.0002828064	10362
bin	0.0002836608	10536
bin	0.0002845152	10385
bin	0.0002853696	10318
bin	0.000286224	10344
bin	0.0002870784	10403
bin	0.0002879328	10331
bin	0.0002887872	10460
bin	0.0002896416	10356
bin	0.000290496	10499
bin	0.0002913504	10461
bin	0.0002922048	10361
bin	0.0002930592	10280
bin	0.0002939136	10224
bin	0.000294768	10174
bin	0.0002956224	10166
bin	0.0002964768	10226
bin	0.0002973312	10227
bin	0.0002981856	10213
bin	0.00029904	10088
bin	0.0002998944	10092
bin	0.0003007488	10002
bin	0.0003016032	10013
bin	0.0003024576	10206
bin	0.000303312	10019
bin	0.0003041664	10202
bin	0.0003050208	10239
bin	0.0003058752	10226
bin	0.0003067296	10106
bin	0.000307584	10169
bin	0.0003084384	10199
bin	0.0003092928	10142
bin	0.0003101472	10085
bin	0.0003110016	10157
bin	0.000311856	10103
bin	0.0003127104	10153
bin	0.0003135648	10151
bin	0.0003144192	10200
bin	0.0003152736	10224
bin	0.000316128	10251
bin	0.0003169824	10256
bin	0.0003178368	10182
bin	0.0003186912	10056
bin	0.0003195456	10085
bin	0.0003204	9894
bin	0.0003212544	9983
bin	0.0003221088	10008
bin	0.0003229632	10028
bin	0.0003238176	9942
bin	0.000324672	10039
bin	0.0003255264	9967
bin	0.0003263808	9974
bin	0.0003272352	9894
bin	0.0003280896	9956
bin	0.000328944	9836
bin	0.0003297984	10094
bin	0.0003306528	9960
bin	0.0003315072	10033
bin	0.0003323616	9898
bin	0.000333216	9882
bin	0.0003340704	10003
bin	0.0003349248	9993
bin	0.0003357792	9961
bin	0.0003366336	9803
bin	0.000337488	10239
bin	0.0003383424	9828
bin	0.0003391968	9994
bin	0.0003400512	9852
bin	0.0003409056	9772
bin	0.00034176	9917
bin	0.0003426144	9836
bin	0.0003434688	9779
bin	0.0003443232	9763
bin	0.0003451776	9823
bin	0.000346032	9761
bin	0.0003468864	9798
bin	0.0003477408	9727
bin	0.0003485952	9793
bin	0.0003494496	9924
bin	0.000350304	9740
bin	0.0003511584	9779
bin	0.0003520128	9888
bin	0.0003528672	10084
bin	0.0003537216	9620
bin	0.000354576	9752
bin	0.0003554304	9682
bin	0.0003562848	9546
bin	0.0003571392	9583
bin	0.0003579936	9500
bin	0.000358848	9603
bin	0.0003597024	9523
bin	0.0003605568	9542
bin	0.0003614112	9442
bin	0.0003622656	9398
bin	0.00036312	9392
bin	0.0003639744	9401
bin	0.0003648288	9386
bin	0.0003656832	9404
bin	0.0003665376	9284
bin	0.000367392	9283
bin	0.0003682464	9596
bin	0.0003691008	9465
bin	0.0003699552	9343
bin	0.0003708096	9499
bin	0.000371664	9351
bin	0.0003725184	9452
bin	0.0003733728	9422
bin	0.0003742272	9403
bin	0.0003750816	9367
bin	0.000375936	9205
bin	0.0003767904	9282
bin	0.0003776448	9264
bin	0.0003784992	9313
bin	0.0003793536	9164
bin	0.000380208	9183
bin	0.0003810624	9061
bin	0.0003819168	9273
bin	0.0003827712	9150
bin	0.0003836256	9354
bin	0.00038448	9377
bin	0.0003853344	9315
bin	0.0003861888	9301
bin	0.0003870432	9518
bin	0.0003878976	9565
bin	0.000388752	9319
bin	0.0003896064	9392
bin	0.0003904608	9152
bin	0.0003913152	9341
bin	0.0003921696	9226
bin	0.000393024	9352
bin	0.0003938784	9287
bin	0.0003947328	9349
bin	0.0003955872	9471
bin	0.0003964416	9386
bin	0.000397296	9341
bin	0.0003981504	9507
bin	0.0003990048	9497
bin	0.0003998592	9561
bin	0.0004007136	9570
bin	0.000401568	9562
bin	0.0004024224	9627
bin	0.0004032768	9457
bin	0.0004041312	9536
bin	0.0004049856	9539
bin	0.00040584	9479
bin	0.0004066944	9364
bin	0.0004075488	9499
bin	0.0004084032	9436
bin	0.0004092576	9431
bin	0.000410112	9616
bin	0.0004109664	9471
bin	0.0004118208	9491
bin	0.0004126752	9587
bin	0.0004135296	9367
bin	0.000414384	9401
bin	0.0004152384	9332
bin	0.0004160928	9476
bin	0.0004169472	9541
bin	0.0004178016	9397
bin	0.000418656	9386
bin	0.0004195104	9349
bin	0.0004203648	9258
bin	0.0004212192	9321
bin	0.0004220736	9297
bin	0.000422928	9390
bin	0.0004237824	9416
bin	0.0004246368	9463
bin	0.0004254912	9387
bin	0.0004263456	9319
bin	0.0004272	1236658
