version 2
run Butterfly-120-20120709-13:22:08-24162
attr alg 0
attr buf 8
attr configname Butterfly
attr datetime 20120709-13:22:08
attr delta 1.4
attr experiment Butterfly
attr ext false
attr inifile altro.ini
attr iterationvars "$buf=8, $ext=false, $ofedge=1, $delta=1.4, $alg=0"
attr iterationvars2 "$buf=8, $ext=false, $ofedge=1, $delta=1.4, $alg=0, $repetition=0"
attr measurement "$buf=8, $ext=false, $ofedge=1, $delta=1.4, $alg=0"
attr network Torus3d_bub
attr ofedge 1
attr processid 24162
attr repetition 0
attr replication #0
attr resultdir altro-results
attr runnumber 120
attr seedset 120

scalar . 	alg 	0
scalar . 	buf 	8
scalar . 	delta 	1.4
scalar . 	ofedge 	1
scalar Torus3d_bub.timer 	#endTime 	0.000957514998689
scalar Torus3d_bub.timer 	#totalHops 	23592960
scalar Torus3d_bub.timer 	#totalPacks 	6291456
scalar Torus3d_bub.timer 	#totalDerouted 	0
scalar Torus3d_bub.timer 	#totalOutFlanked 	0
scalar Torus3d_bub.timer 	#totalCQRed 	0
scalar Torus3d_bub.timer 	#LB 	0.000786432
scalar Torus3d_bub.timer 	#ratio 	0.82132603779237
statistic Torus3d_bub.timer 	"Hop Times"
field count 6291456
field mean 5.854571774321e-05
field stddev 6.3540380795276e-05
field sum 368.33780716982
field sqrsum 0.046965595827824
field min 3.80309418e-07
field max 0.000463715617982
bin	-INF	0
bin	0	0
bin	7.12e-08	0
bin	1.424e-07	0
bin	2.136e-07	0
bin	2.848e-07	0
bin	3.56e-07	88
bin	4.272e-07	496
bin	4.984e-07	7336
bin	5.696e-07	3440
bin	6.408e-07	3560
bin	7.12e-07	6088
bin	7.832e-07	2616
bin	8.544e-07	7952
bin	9.256e-07	2872
bin	9.968e-07	5960
bin	1.068e-06	5528
bin	1.1392e-06	7744
bin	1.2104e-06	4784
bin	1.2816e-06	7592
bin	1.3528e-06	6264
bin	1.424e-06	4592
bin	1.4952e-06	6920
bin	1.5664e-06	5488
bin	1.6376e-06	9440
bin	1.7088e-06	5080
bin	1.78e-06	8656
bin	1.8512e-06	6216
bin	1.9224e-06	6824
bin	1.9936e-06	4080
bin	2.0648e-06	8320
bin	2.136e-06	7304
bin	2.2072e-06	7808
bin	2.2784e-06	8608
bin	2.3496e-06	2224
bin	2.4208e-06	7080
bin	2.492e-06	6496
bin	2.5632e-06	12336
bin	2.6344e-06	4976
bin	2.7056e-06	6648
bin	2.7768e-06	5032
bin	2.848e-06	11528
bin	2.9192e-06	4544
bin	2.9904e-06	10016
bin	3.0616e-06	14248
bin	3.1328e-06	4504
bin	3.204e-06	9408
bin	3.2752e-06	6352
bin	3.3464e-06	9232
bin	3.4176e-06	5056
bin	3.4888e-06	4536
bin	3.56e-06	8536
bin	3.6312e-06	9016
bin	3.7024e-06	6824
bin	3.7736e-06	5344
bin	3.8448e-06	11488
bin	3.916e-06	6824
bin	3.9872e-06	8056
bin	4.0584e-06	9664
bin	4.1296e-06	9960
bin	4.2008e-06	8464
bin	4.272e-06	6688
bin	4.3432e-06	8552
bin	4.4144e-06	11216
bin	4.4856e-06	6728
bin	4.5568e-06	4712
bin	4.628e-06	9664
bin	4.6992e-06	4968
bin	4.7704e-06	6848
bin	4.8416e-06	7560
bin	4.9128e-06	9272
bin	4.984e-06	8456
bin	5.0552e-06	6200
bin	5.1264e-06	8472
bin	5.1976e-06	10328
bin	5.2688e-06	6560
bin	5.34e-06	9352
bin	5.4112e-06	11568
bin	5.4824e-06	7240
bin	5.5536e-06	8472
bin	5.6248e-06	8968
bin	5.696e-06	9200
bin	5.7672e-06	9288
bin	5.8384e-06	4984
bin	5.9096e-06	7832
bin	5.9808e-06	10296
bin	6.052e-06	6272
bin	6.1232e-06	4920
bin	6.1944e-06	11512
bin	6.2656e-06	7344
bin	6.3368e-06	4624
bin	6.408e-06	9136
bin	6.4792e-06	9120
bin	6.5504e-06	8136
bin	6.6216e-06	5008
bin	6.6928e-06	7160
bin	6.764e-06	10248
bin	6.8352e-06	8832
bin	6.9064e-06	9280
bin	6.9776e-06	12192
bin	7.0488e-06	6288
bin	7.12e-06	8080
bin	7.1912e-06	8736
bin	7.2624e-06	11384
bin	7.3336e-06	6888
bin	7.4048e-06	6704
bin	7.476e-06	7720
bin	7.5472e-06	10240
bin	7.6184e-06	5088
bin	7.6896e-06	6224
bin	7.7608e-06	15040
bin	7.832e-06	8072
bin	7.9032e-06	5416
bin	7.9744e-06	7792
bin	8.0456e-06	8928
bin	8.1168e-06	8952
bin	8.188e-06	7392
bin	8.2592e-06	9256
bin	8.3304e-06	12680
bin	8.4016e-06	9928
bin	8.4728e-06	6696
bin	8.544e-06	12816
bin	8.6152e-06	4688
bin	8.6864e-06	8832
bin	8.7576e-06	7128
bin	8.8288e-06	12784
bin	8.9e-06	8032
bin	8.9712e-06	8320
bin	9.0424e-06	4808
bin	9.1136e-06	8432
bin	9.1848e-06	7784
bin	9.256e-06	5232
bin	9.3272e-06	11760
bin	9.3984e-06	5072
bin	9.4696e-06	8656
bin	9.5408e-06	7224
bin	9.612e-06	11600
bin	9.6832e-06	5888
bin	9.7544e-06	7512
bin	9.8256e-06	6200
bin	9.8968e-06	11384
bin	9.968e-06	9520
bin	1.00392e-05	7440
bin	1.01104e-05	12336
bin	1.01816e-05	6680
bin	1.02528e-05	7272
bin	1.0324e-05	7648
bin	1.03952e-05	10256
bin	1.04664e-05	6048
bin	1.05376e-05	6192
bin	1.06088e-05	7464
bin	1.068e-05	11584
bin	1.07512e-05	7936
bin	1.08224e-05	7088
bin	1.08936e-05	11048
bin	1.09648e-05	6992
bin	1.1036e-05	6696
bin	1.11072e-05	8240
bin	1.11784e-05	12216
bin	1.12496e-05	6976
bin	1.13208e-05	7488
bin	1.1392e-05	7328
bin	1.14632e-05	9368
bin	1.15344e-05	5336
bin	1.16056e-05	6616
bin	1.16768e-05	9840
bin	1.1748e-05	5632
bin	1.18192e-05	6776
bin	1.18904e-05	5824
bin	1.19616e-05	11032
bin	1.20328e-05	4648
bin	1.2104e-05	4672
bin	1.21752e-05	7032
bin	1.22464e-05	11824
bin	1.23176e-05	6920
bin	1.23888e-05	7384
bin	1.246e-05	11384
bin	1.25312e-05	6880
bin	1.26024e-05	6352
bin	1.26736e-05	5944
bin	1.27448e-05	9720
bin	1.2816e-05	5176
bin	1.28872e-05	6880
bin	1.29584e-05	5872
bin	1.30296e-05	6512
bin	1.31008e-05	5008
bin	1.3172e-05	6192
bin	1.32432e-05	6296
bin	1.33144e-05	5984
bin	1.33856e-05	5840
bin	1.34568e-05	6072
bin	1.3528e-05	7992
bin	1.35992e-05	6376
bin	1.36704e-05	6808
bin	1.37416e-05	6784
bin	1.38128e-05	6768
bin	1.3884e-05	7664
bin	1.39552e-05	6520
bin	1.40264e-05	8096
bin	1.40976e-05	7392
bin	1.41688e-05	7280
bin	1.424e-05	6136
bin	1.43112e-05	6968
bin	1.43824e-05	7096
bin	1.44536e-05	6392
bin	1.45248e-05	6680
bin	1.4596e-05	6280
bin	1.46672e-05	6944
bin	1.47384e-05	6600
bin	1.48096e-05	6112
bin	1.48808e-05	6160
bin	1.4952e-05	6064
bin	1.50232e-05	5840
bin	1.50944e-05	5856
bin	1.51656e-05	7208
bin	1.52368e-05	8448
bin	1.5308e-05	7936
bin	1.53792e-05	7432
bin	1.54504e-05	8792
bin	1.55216e-05	8336
bin	1.55928e-05	9000
bin	1.5664e-05	8088
bin	1.57352e-05	7312
bin	1.58064e-05	9264
bin	1.58776e-05	9080
bin	1.59488e-05	7984
bin	1.602e-05	7864
bin	1.60912e-05	7152
bin	1.61624e-05	7992
bin	1.62336e-05	8568
bin	1.63048e-05	7624
bin	1.6376e-05	8664
bin	1.64472e-05	6688
bin	1.65184e-05	7144
bin	1.65896e-05	6776
bin	1.66608e-05	5960
bin	1.6732e-05	6032
bin	1.68032e-05	6512
bin	1.68744e-05	7352
bin	1.69456e-05	5736
bin	1.70168e-05	7136
bin	1.7088e-05	7080
bin	1.71592e-05	6016
bin	1.72304e-05	6104
bin	1.73016e-05	7080
bin	1.73728e-05	7680
bin	1.7444e-05	7128
bin	1.75152e-05	7160
bin	1.75864e-05	6776
bin	1.76576e-05	7736
bin	1.77288e-05	5872
bin	1.78e-05	7328
bin	1.78712e-05	6744
bin	1.79424e-05	6648
bin	1.80136e-05	6976
bin	1.80848e-05	6096
bin	1.8156e-05	7440
bin	1.82272e-05	5912
bin	1.82984e-05	5960
bin	1.83696e-05	6528
bin	1.84408e-05	7552
bin	1.8512e-05	5528
bin	1.85832e-05	7088
bin	1.86544e-05	6648
bin	1.87256e-05	5768
bin	1.87968e-05	7040
bin	1.8868e-05	5440
bin	1.89392e-05	7856
bin	1.90104e-05	5792
bin	1.90816e-05	7152
bin	1.91528e-05	6328
bin	1.9224e-05	6624
bin	1.92952e-05	6224
bin	1.93664e-05	6832
bin	1.94376e-05	6648
bin	1.95088e-05	6688
bin	1.958e-05	6664
bin	1.96512e-05	5888
bin	1.97224e-05	7400
bin	1.97936e-05	6064
bin	1.98648e-05	6680
bin	1.9936e-05	6816
bin	2.00072e-05	6648
bin	2.00784e-05	6296
bin	2.01496e-05	6368
bin	2.02208e-05	8104
bin	2.0292e-05	7096
bin	2.03632e-05	7776
bin	2.04344e-05	6632
bin	2.05056e-05	7344
bin	2.05768e-05	6608
bin	2.0648e-05	6504
bin	2.07192e-05	6600
bin	2.07904e-05	5872
bin	2.08616e-05	6072
bin	2.09328e-05	5672
bin	2.1004e-05	6344
bin	2.10752e-05	5848
bin	2.11464e-05	5736
bin	2.12176e-05	5928
bin	2.12888e-05	6920
bin	2.136e-05	6232
bin	2.14312e-05	5496
bin	2.15024e-05	7048
bin	2.15736e-05	5888
bin	2.16448e-05	6168
bin	2.1716e-05	5760
bin	2.17872e-05	7120
bin	2.18584e-05	5896
bin	2.19296e-05	6672
bin	2.20008e-05	5664
bin	2.2072e-05	6376
bin	2.21432e-05	6048
bin	2.22144e-05	5696
bin	2.22856e-05	7112
bin	2.23568e-05	5536
bin	2.2428e-05	6936
bin	2.24992e-05	6360
bin	2.25704e-05	7792
bin	2.26416e-05	6544
bin	2.27128e-05	6496
bin	2.2784e-05	7248
bin	2.28552e-05	7032
bin	2.29264e-05	7200
bin	2.29976e-05	6136
bin	2.30688e-05	7536
bin	2.314e-05	6040
bin	2.32112e-05	6920
bin	2.32824e-05	6104
bin	2.33536e-05	7176
bin	2.34248e-05	6400
bin	2.3496e-05	7040
bin	2.35672e-05	5656
bin	2.36384e-05	6544
bin	2.37096e-05	6840
bin	2.37808e-05	5808
bin	2.3852e-05	6280
bin	2.39232e-05	4896
bin	2.39944e-05	5552
bin	2.40656e-05	5008
bin	2.41368e-05	6200
bin	2.4208e-05	4960
bin	2.42792e-05	5480
bin	2.43504e-05	5768
bin	2.44216e-05	6232
bin	2.44928e-05	6368
bin	2.4564e-05	5440
bin	2.46352e-05	6656
bin	2.47064e-05	5520
bin	2.47776e-05	6440
bin	2.48488e-05	5328
bin	2.492e-05	6096
bin	2.49912e-05	5216
bin	2.50624e-05	5920
bin	2.51336e-05	5992
bin	2.52048e-05	6328
bin	2.5276e-05	6248
bin	2.53472e-05	5448
bin	2.54184e-05	6272
bin	2.54896e-05	5896
bin	2.55608e-05	5896
bin	2.5632e-05	5832
bin	2.57032e-05	6776
bin	2.57744e-05	5784
bin	2.58456e-05	6400
bin	2.59168e-05	5880
bin	2.5988e-05	5704
bin	2.60592e-05	6408
bin	2.61304e-05	5296
bin	2.62016e-05	6024
bin	2.62728e-05	6392
bin	2.6344e-05	5960
bin	2.64152e-05	6000
bin	2.64864e-05	6128
bin	2.65576e-05	5248
bin	2.66288e-05	5336
bin	2.67e-05	5192
bin	2.67712e-05	5664
bin	2.68424e-05	5432
bin	2.69136e-05	5024
bin	2.69848e-05	5640
bin	2.7056e-05	5968
bin	2.71272e-05	6168
bin	2.71984e-05	5480
bin	2.72696e-05	5368
bin	2.73408e-05	6088
bin	2.7412e-05	6264
bin	2.74832e-05	5472
bin	2.75544e-05	5104
bin	2.76256e-05	5992
bin	2.76968e-05	5856
bin	2.7768e-05	6864
bin	2.78392e-05	5000
bin	2.79104e-05	5288
bin	2.79816e-05	6624
bin	2.80528e-05	5208
bin	2.8124e-05	5608
bin	2.81952e-05	4736
bin	2.82664e-05	5528
bin	2.83376e-05	5024
bin	2.84088e-05	6000
bin	2.848e-05	5328
bin	2.85512e-05	4784
bin	2.86224e-05	4520
bin	2.86936e-05	4680
bin	2.87648e-05	5160
bin	2.8836e-05	4960
bin	2.89072e-05	4856
bin	2.89784e-05	4296
bin	2.90496e-05	4936
bin	2.91208e-05	4720
bin	2.9192e-05	4744
bin	2.92632e-05	4528
bin	2.93344e-05	4952
bin	2.94056e-05	5024
bin	2.94768e-05	5200
bin	2.9548e-05	5256
bin	2.96192e-05	5088
bin	2.96904e-05	6120
bin	2.97616e-05	4296
bin	2.98328e-05	5088
bin	2.9904e-05	5272
bin	2.99752e-05	4944
bin	3.00464e-05	5048
bin	3.01176e-05	5192
bin	3.01888e-05	5352
bin	3.026e-05	5720
bin	3.03312e-05	4152
bin	3.04024e-05	4512
bin	3.04736e-05	4552
bin	3.05448e-05	4256
bin	3.0616e-05	4096
bin	3.06872e-05	4424
bin	3.07584e-05	4400
bin	3.08296e-05	4328
bin	3.09008e-05	4104
bin	3.0972e-05	4520
bin	3.10432e-05	4080
bin	3.11144e-05	4384
bin	3.11856e-05	4264
bin	3.12568e-05	4552
bin	3.1328e-05	4272
bin	3.13992e-05	3968
bin	3.14704e-05	4672
bin	3.15416e-05	4072
bin	3.16128e-05	4448
bin	3.1684e-05	4328
bin	3.17552e-05	4792
bin	3.18264e-05	4368
bin	3.18976e-05	4480
bin	3.19688e-05	4600
bin	3.204e-05	4592
bin	3.21112e-05	4280
bin	3.21824e-05	4128
bin	3.22536e-05	4960
bin	3.23248e-05	4240
bin	3.2396e-05	4592
bin	3.24672e-05	3976
bin	3.25384e-05	4856
bin	3.26096e-05	4368
bin	3.26808e-05	4800
bin	3.2752e-05	4712
bin	3.28232e-05	4688
bin	3.28944e-05	4664
bin	3.29656e-05	4104
bin	3.30368e-05	4752
bin	3.3108e-05	4320
bin	3.31792e-05	4576
bin	3.32504e-05	4192
bin	3.33216e-05	4560
bin	3.33928e-05	4776
bin	3.3464e-05	4424
bin	3.35352e-05	4456
bin	3.36064e-05	5440
bin	3.36776e-05	5048
bin	3.37488e-05	3888
bin	3.382e-05	4456
bin	3.38912e-05	4680
bin	3.39624e-05	4824
bin	3.40336e-05	4528
bin	3.41048e-05	4176
bin	3.4176e-05	3936
bin	3.42472e-05	4248
bin	3.43184e-05	3976
bin	3.43896e-05	4672
bin	3.44608e-05	4584
bin	3.4532e-05	3896
bin	3.46032e-05	4312
bin	3.46744e-05	4056
bin	3.47456e-05	4104
bin	3.48168e-05	4096
bin	3.4888e-05	4352
bin	3.49592e-05	3912
bin	3.50304e-05	4680
bin	3.51016e-05	3968
bin	3.51728e-05	3712
bin	3.5244e-05	4184
bin	3.53152e-05	4072
bin	3.53864e-05	3936
bin	3.54576e-05	3720
bin	3.55288e-05	4256
bin	3.56e-05	3071704
statistic Torus3d_bub.timer 	"Life Times"
field count 6291456
field mean 0.00013113673418645
field stddev 8.5199941735139e-05
field sum 825.04099311772
field sqrsum 0.15386304244697
field min 5.2e-07
field max 0.000463715617982
bin	-INF	0
bin	0	9296
bin	8.544e-07	23712
bin	1.7088e-06	29544
bin	2.5632e-06	31176
bin	3.4176e-06	26360
bin	4.272e-06	29592
bin	5.1264e-06	32464
bin	5.9808e-06	40728
bin	6.8352e-06	31504
bin	7.6896e-06	37264
bin	8.544e-06	41208
bin	9.3984e-06	33752
bin	1.02528e-05	36112
bin	1.11072e-05	39576
bin	1.19616e-05	41712
bin	1.2816e-05	24864
bin	1.36704e-05	20696
bin	1.45248e-05	21536
bin	1.53792e-05	27744
bin	1.62336e-05	19736
bin	1.7088e-05	26648
bin	1.79424e-05	18848
bin	1.87968e-05	20704
bin	1.96512e-05	21520
bin	2.05056e-05	17056
bin	2.136e-05	17752
bin	2.22144e-05	16192
bin	2.30688e-05	18456
bin	2.39232e-05	17576
bin	2.47776e-05	14160
bin	2.5632e-05	14496
bin	2.64864e-05	13800
bin	2.73408e-05	13944
bin	2.81952e-05	14336
bin	2.90496e-05	13288
bin	2.9904e-05	13616
bin	3.07584e-05	15888
bin	3.16128e-05	17376
bin	3.24672e-05	19736
bin	3.33216e-05	18032
bin	3.4176e-05	18280
bin	3.50304e-05	22312
bin	3.58848e-05	20608
bin	3.67392e-05	19240
bin	3.75936e-05	21824
bin	3.8448e-05	19240
bin	3.93024e-05	17888
bin	4.01568e-05	20704
bin	4.10112e-05	19376
bin	4.18656e-05	18512
bin	4.272e-05	20752
bin	4.35744e-05	20816
bin	4.44288e-05	21416
bin	4.52832e-05	18896
bin	4.61376e-05	19200
bin	4.6992e-05	19968
bin	4.78464e-05	17072
bin	4.87008e-05	18328
bin	4.95552e-05	21992
bin	5.04096e-05	21048
bin	5.1264e-05	20288
bin	5.21184e-05	20136
bin	5.29728e-05	17536
bin	5.38272e-05	16488
bin	5.46816e-05	20344
bin	5.5536e-05	21472
bin	5.63904e-05	18080
bin	5.72448e-05	15808
bin	5.80992e-05	14920
bin	5.89536e-05	16192
bin	5.9808e-05	14256
bin	6.06624e-05	17536
bin	6.15168e-05	18240
bin	6.23712e-05	17576
bin	6.32256e-05	17512
bin	6.408e-05	16824
bin	6.49344e-05	18616
bin	6.57888e-05	21632
bin	6.66432e-05	22592
bin	6.74976e-05	19880
bin	6.8352e-05	19496
bin	6.92064e-05	20056
bin	7.00608e-05	22160
bin	7.09152e-05	19632
bin	7.17696e-05	17816
bin	7.2624e-05	18088
bin	7.34784e-05	17432
bin	7.43328e-05	17568
bin	7.51872e-05	17168
bin	7.60416e-05	18328
bin	7.6896e-05	18000
bin	7.77504e-05	16808
bin	7.86048e-05	16944
bin	7.94592e-05	20608
bin	8.03136e-05	19632
bin	8.1168e-05	21136
bin	8.20224e-05	19320
bin	8.28768e-05	18120
bin	8.37312e-05	18656
bin	8.45856e-05	19096
bin	8.544e-05	20032
bin	8.62944e-05	20120
bin	8.71488e-05	21208
bin	8.80032e-05	21744
bin	8.88576e-05	23256
bin	8.9712e-05	24184
bin	9.05664e-05	23968
bin	9.14208e-05	24552
bin	9.22752e-05	22832
bin	9.31296e-05	21880
bin	9.3984e-05	21048
bin	9.48384e-05	22560
bin	9.56928e-05	21544
bin	9.65472e-05	21888
bin	9.74016e-05	23768
bin	9.8256e-05	24744
bin	9.91104e-05	22984
bin	9.99648e-05	22304
bin	0.0001008192	21832
bin	0.0001016736	23384
bin	0.000102528	22552
bin	0.0001033824	23232
bin	0.0001042368	23480
bin	0.0001050912	23672
bin	0.0001059456	23168
bin	0.0001068	23120
bin	0.0001076544	25680
bin	0.0001085088	25464
bin	0.0001093632	24944
bin	0.0001102176	27560
bin	0.000111072	28536
bin	0.0001119264	28496
bin	0.0001127808	27552
bin	0.0001136352	28840
bin	0.0001144896	25368
bin	0.000115344	25240
bin	0.0001161984	26096
bin	0.0001170528	27280
bin	0.0001179072	24440
bin	0.0001187616	24240
bin	0.000119616	24592
bin	0.0001204704	24088
bin	0.0001213248	22560
bin	0.0001221792	23216
bin	0.0001230336	23512
bin	0.000123888	24280
bin	0.0001247424	25280
bin	0.0001255968	23672
bin	0.0001264512	24184
bin	0.0001273056	24120
bin	0.00012816	22360
bin	0.0001290144	22816
bin	0.0001298688	23680
bin	0.0001307232	23672
bin	0.0001315776	21488
bin	0.000132432	20512
bin	0.0001332864	21040
bin	0.0001341408	22656
bin	0.0001349952	21944
bin	0.0001358496	22072
bin	0.000136704	20424
bin	0.0001375584	21392
bin	0.0001384128	21064
bin	0.0001392672	21688
bin	0.0001401216	21784
bin	0.000140976	22176
bin	0.0001418304	21624
bin	0.0001426848	22056
bin	0.0001435392	21584
bin	0.0001443936	22248
bin	0.000145248	22480
bin	0.0001461024	21968
bin	0.0001469568	22672
bin	0.0001478112	23568
bin	0.0001486656	24312
bin	0.00014952	21200
bin	0.0001503744	21176
bin	0.0001512288	21288
bin	0.0001520832	21184
bin	0.0001529376	21088
bin	0.000153792	21464
bin	0.0001546464	21464
bin	0.0001555008	20488
bin	0.0001563552	20536
bin	0.0001572096	19984
bin	0.000158064	20000
bin	0.0001589184	20408
bin	0.0001597728	20112
bin	0.0001606272	19672
bin	0.0001614816	20296
bin	0.000162336	20824
bin	0.0001631904	20312
bin	0.0001640448	20624
bin	0.0001648992	20008
bin	0.0001657536	19928
bin	0.000166608	19520
bin	0.0001674624	18672
bin	0.0001683168	18528
bin	0.0001691712	18552
bin	0.0001700256	18088
bin	0.00017088	18272
bin	0.0001717344	18416
bin	0.0001725888	17840
bin	0.0001734432	17608
bin	0.0001742976	17712
bin	0.000175152	18160
bin	0.0001760064	17072
bin	0.0001768608	18272
bin	0.0001777152	17800
bin	0.0001785696	17096
bin	0.000179424	17408
bin	0.0001802784	17528
bin	0.0001811328	17408
bin	0.0001819872	17656
bin	0.0001828416	17360
bin	0.000183696	17224
bin	0.0001845504	16896
bin	0.0001854048	17504
bin	0.0001862592	17584
bin	0.0001871136	17936
bin	0.000187968	17464
bin	0.0001888224	17224
bin	0.0001896768	17088
bin	0.0001905312	17064
bin	0.0001913856	16256
bin	0.00019224	16496
bin	0.0001930944	16280
bin	0.0001939488	16200
bin	0.0001948032	16920
bin	0.0001956576	16952
bin	0.000196512	16920
bin	0.0001973664	16936
bin	0.0001982208	16744
bin	0.0001990752	16592
bin	0.0001999296	16672
bin	0.000200784	16696
bin	0.0002016384	16672
bin	0.0002024928	16488
bin	0.0002033472	16728
bin	0.0002042016	15856
bin	0.000205056	16016
bin	0.0002059104	16096
bin	0.0002067648	14824
bin	0.0002076192	14816
bin	0.0002084736	15120
bin	0.000209328	14904
bin	0.0002101824	14656
bin	0.0002110368	14784
bin	0.0002118912	14240
bin	0.0002127456	14416
bin	0.0002136	13736
bin	0.0002144544	13936
bin	0.0002153088	13752
bin	0.0002161632	12856
bin	0.0002170176	12472
bin	0.000217872	12312
bin	0.0002187264	12296
bin	0.0002195808	11776
bin	0.0002204352	12040
bin	0.0002212896	11888
bin	0.000222144	12208
bin	0.0002229984	12456
bin	0.0002238528	11904
bin	0.0002247072	12032
bin	0.0002255616	11792
bin	0.000226416	11752
bin	0.0002272704	11616
bin	0.0002281248	11448
bin	0.0002289792	11424
bin	0.0002298336	12056
bin	0.000230688	11656
bin	0.0002315424	11552
bin	0.0002323968	11336
bin	0.0002332512	11280
bin	0.0002341056	11040
bin	0.00023496	10832
bin	0.0002358144	11032
bin	0.0002366688	11152
bin	0.0002375232	11176
bin	0.0002383776	10704
bin	0.000239232	10888
bin	0.0002400864	10648
bin	0.0002409408	10872
bin	0.0002417952	10280
bin	0.0002426496	10096
bin	0.000243504	10232
bin	0.0002443584	10216
bin	0.0002452128	10096
bin	0.0002460672	9976
bin	0.0002469216	9856
bin	0.000247776	9400
bin	0.0002486304	9440
bin	0.0002494848	9568
bin	0.0002503392	9728
bin	0.0002511936	9704
bin	0.000252048	9488
bin	0.0002529024	9552
bin	0.0002537568	9216
bin	0.0002546112	9104
bin	0.0002554656	8568
bin	0.00025632	9160
bin	0.0002571744	9064
bin	0.0002580288	8968
bin	0.0002588832	8880
bin	0.0002597376	8552
bin	0.000260592	8728
bin	0.0002614464	8752
bin	0.0002623008	8560
bin	0.0002631552	8184
bin	0.0002640096	8552
bin	0.000264864	8168
bin	0.0002657184	7952
bin	0.0002665728	7888
bin	0.0002674272	8096
bin	0.0002682816	7952
bin	0.000269136	7888
bin	0.0002699904	7640
bin	0.0002708448	7240
bin	0.0002716992	7400
bin	0.0002725536	7144
bin	0.000273408	7208
bin	0.0002742624	6856
bin	0.0002751168	6696
bin	0.0002759712	6816
bin	0.0002768256	6752
bin	0.00027768	6368
bin	0.0002785344	6728
bin	0.0002793888	6240
bin	0.0002802432	5864
bin	0.0002810976	5800
bin	0.000281952	5968
bin	0.0002828064	5824
bin	0.0002836608	6104
bin	0.0002845152	6024
bin	0.0002853696	5744
bin	0.000286224	5632
bin	0.0002870784	5696
bin	0.0002879328	5904
bin	0.0002887872	5560
bin	0.0002896416	5296
bin	0.000290496	5248
bin	0.0002913504	4936
bin	0.0002922048	5304
bin	0.0002930592	5320
bin	0.0002939136	5416
bin	0.000294768	5336
bin	0.0002956224	4976
bin	0.0002964768	4848
bin	0.0002973312	4968
bin	0.0002981856	5152
bin	0.00029904	5032
bin	0.0002998944	5064
bin	0.0003007488	5040
bin	0.0003016032	4832
bin	0.0003024576	4552
bin	0.000303312	4576
bin	0.0003041664	4568
bin	0.0003050208	4352
bin	0.0003058752	4080
bin	0.0003067296	4256
bin	0.000307584	4136
bin	0.0003084384	4104
bin	0.0003092928	3920
bin	0.0003101472	3672
bin	0.0003110016	3536
bin	0.000311856	3208
bin	0.0003127104	3440
bin	0.0003135648	3304
bin	0.0003144192	2928
bin	0.0003152736	3040
bin	0.000316128	2840
bin	0.0003169824	2648
bin	0.0003178368	2672
bin	0.0003186912	2592
bin	0.0003195456	2504
bin	0.0003204	2592
bin	0.0003212544	2736
bin	0.0003221088	2520
bin	0.0003229632	2616
bin	0.0003238176	2664
bin	0.000324672	2592
bin	0.0003255264	2600
bin	0.0003263808	2456
bin	0.0003272352	2360
bin	0.0003280896	2280
bin	0.000328944	2232
bin	0.0003297984	2200
bin	0.0003306528	2168
bin	0.0003315072	2232
bin	0.0003323616	2104
bin	0.000333216	1864
bin	0.0003340704	1944
bin	0.0003349248	1896
bin	0.0003357792	1800
bin	0.0003366336	1792
bin	0.000337488	2032
bin	0.0003383424	1776
bin	0.0003391968	1824
bin	0.0003400512	1680
bin	0.0003409056	1704
bin	0.00034176	1744
bin	0.0003426144	1776
bin	0.0003434688	1640
bin	0.0003443232	1744
bin	0.0003451776	1616
bin	0.000346032	1816
bin	0.0003468864	1784
bin	0.0003477408	1752
bin	0.0003485952	1864
bin	0.0003494496	1896
bin	0.000350304	1896
bin	0.0003511584	1792
bin	0.0003520128	1760
bin	0.0003528672	1752
bin	0.0003537216	1808
bin	0.000354576	1648
bin	0.0003554304	1504
bin	0.0003562848	1456
bin	0.0003571392	1360
bin	0.0003579936	1376
bin	0.000358848	1536
bin	0.0003597024	1512
bin	0.0003605568	1440
bin	0.0003614112	1352
bin	0.0003622656	1328
bin	0.00036312	1272
bin	0.0003639744	1112
bin	0.0003648288	1088
bin	0.0003656832	1096
bin	0.0003665376	1080
bin	0.000367392	1008
bin	0.0003682464	928
bin	0.0003691008	872
bin	0.0003699552	800
bin	0.0003708096	784
bin	0.000371664	768
bin	0.0003725184	768
bin	0.0003733728	776
bin	0.0003742272	776
bin	0.0003750816	704
bin	0.000375936	768
bin	0.0003767904	656
bin	0.0003776448	616
bin	0.0003784992	688
bin	0.0003793536	640
bin	0.000380208	624
bin	0.0003810624	600
bin	0.0003819168	704
bin	0.0003827712	536
bin	0.0003836256	488
bin	0.00038448	440
bin	0.0003853344	408
bin	0.0003861888	456
bin	0.0003870432	464
bin	0.0003878976	408
bin	0.000388752	344
bin	0.0003896064	336
bin	0.0003904608	376
bin	0.0003913152	344
bin	0.0003921696	352
bin	0.000393024	288
bin	0.0003938784	264
bin	0.0003947328	264
bin	0.0003955872	208
bin	0.0003964416	240
bin	0.000397296	240
bin	0.0003981504	256
bin	0.0003990048	240
bin	0.0003998592	256
bin	0.0004007136	288
bin	0.000401568	256
bin	0.0004024224	232
bin	0.0004032768	192
bin	0.0004041312	200
bin	0.0004049856	184
bin	0.00040584	200
bin	0.0004066944	240
bin	0.0004075488	208
bin	0.0004084032	272
bin	0.0004092576	272
bin	0.000410112	280
bin	0.0004109664	320
bin	0.0004118208	312
bin	0.0004126752	224
bin	0.0004135296	216
bin	0.000414384	224
bin	0.0004152384	192
bin	0.0004160928	176
bin	0.0004169472	120
bin	0.0004178016	112
bin	0.000418656	80
bin	0.0004195104	56
bin	0.0004203648	72
bin	0.0004212192	32
bin	0.0004220736	32
bin	0.000422928	32
bin	0.0004237824	32
bin	0.0004246368	24
bin	0.0004254912	32
bin	0.0004263456	24
bin	0.0004272	152
