version 2
run Butterfly-183-20120709-15:13:06-24270
attr alg 3
attr buf 8
attr configname Butterfly
attr datetime 20120709-15:13:06
attr delta 2
attr experiment Butterfly
attr ext false
attr inifile altro.ini
attr iterationvars "$buf=8, $ext=false, $ofedge=2, $delta=2, $alg=3"
attr iterationvars2 "$buf=8, $ext=false, $ofedge=2, $delta=2, $alg=3, $repetition=0"
attr measurement "$buf=8, $ext=false, $ofedge=2, $delta=2, $alg=3"
attr network Torus3d_bub
attr ofedge 2
attr processid 24270
attr repetition 0
attr replication #0
attr resultdir altro-results
attr runnumber 183
attr seedset 183

scalar . 	alg 	3
scalar . 	buf 	8
scalar . 	delta 	2
scalar . 	ofedge 	2
scalar Torus3d_bub.timer 	#endTime 	0.001007637665134
scalar Torus3d_bub.timer 	#totalHops 	45818249
scalar Torus3d_bub.timer 	#totalPacks 	6291456
scalar Torus3d_bub.timer 	#totalDerouted 	3934567
scalar Torus3d_bub.timer 	#totalOutFlanked 	3723891
scalar Torus3d_bub.timer 	#totalCQRed 	210676
scalar Torus3d_bub.timer 	#LB 	0.000786432
scalar Torus3d_bub.timer 	#ratio 	0.78047102367438
statistic Torus3d_bub.timer 	"Hop Times"
field count 6291456
field mean 5.1944301729243e-05
field stddev 7.2102561395847e-05
field sum 326.80528878025
field sqrsum 0.049683558924488
field min 4.59333208e-07
field max 0.000673702
bin	-INF	0
bin	0	0
bin	7.12e-08	0
bin	1.424e-07	0
bin	2.136e-07	0
bin	2.848e-07	0
bin	3.56e-07	0
bin	4.272e-07	2053
bin	4.984e-07	4098
bin	5.696e-07	2060
bin	6.408e-07	2106
bin	7.12e-07	8222
bin	7.832e-07	134
bin	8.544e-07	4139
bin	9.256e-07	5269
bin	9.968e-07	10337
bin	1.068e-06	2472
bin	1.1392e-06	2626
bin	1.2104e-06	9088
bin	1.2816e-06	9956
bin	1.3528e-06	7209
bin	1.424e-06	6201
bin	1.4952e-06	16216
bin	1.5664e-06	12699
bin	1.6376e-06	10562
bin	1.7088e-06	11673
bin	1.78e-06	13123
bin	1.8512e-06	11580
bin	1.9224e-06	10050
bin	1.9936e-06	9119
bin	2.0648e-06	18264
bin	2.136e-06	7665
bin	2.2072e-06	10385
bin	2.2784e-06	11870
bin	2.3496e-06	9213
bin	2.4208e-06	12468
bin	2.492e-06	19567
bin	2.5632e-06	14041
bin	2.6344e-06	7846
bin	2.7056e-06	11927
bin	2.7768e-06	9816
bin	2.848e-06	12963
bin	2.9192e-06	6235
bin	2.9904e-06	7958
bin	3.0616e-06	9715
bin	3.1328e-06	6167
bin	3.204e-06	5704
bin	3.2752e-06	5732
bin	3.3464e-06	9792
bin	3.4176e-06	7864
bin	3.4888e-06	6103
bin	3.56e-06	6993
bin	3.6312e-06	9917
bin	3.7024e-06	6029
bin	3.7736e-06	6777
bin	3.8448e-06	9896
bin	3.916e-06	8528
bin	3.9872e-06	5831
bin	4.0584e-06	7020
bin	4.1296e-06	10018
bin	4.2008e-06	6947
bin	4.272e-06	6295
bin	4.3432e-06	6139
bin	4.4144e-06	10875
bin	4.4856e-06	6707
bin	4.5568e-06	6176
bin	4.628e-06	11072
bin	4.6992e-06	8527
bin	4.7704e-06	6187
bin	4.8416e-06	6969
bin	4.9128e-06	10564
bin	4.984e-06	6420
bin	5.0552e-06	6641
bin	5.1264e-06	8453
bin	5.1976e-06	10611
bin	5.2688e-06	6097
bin	5.34e-06	6404
bin	5.4112e-06	10346
bin	5.4824e-06	6587
bin	5.5536e-06	6294
bin	5.6248e-06	6577
bin	5.696e-06	10495
bin	5.7672e-06	6628
bin	5.8384e-06	6539
bin	5.9096e-06	6186
bin	5.9808e-06	12782
bin	6.052e-06	6390
bin	6.1232e-06	6538
bin	6.1944e-06	10380
bin	6.2656e-06	8766
bin	6.3368e-06	6260
bin	6.408e-06	6462
bin	6.4792e-06	10585
bin	6.5504e-06	6444
bin	6.6216e-06	6662
bin	6.6928e-06	8330
bin	6.764e-06	10518
bin	6.8352e-06	6526
bin	6.9064e-06	6510
bin	6.9776e-06	10508
bin	7.0488e-06	6906
bin	7.12e-06	6401
bin	7.1912e-06	6465
bin	7.2624e-06	10587
bin	7.3336e-06	6413
bin	7.4048e-06	6509
bin	7.476e-06	6381
bin	7.5472e-06	10685
bin	7.6184e-06	6521
bin	7.6896e-06	6429
bin	7.7608e-06	10514
bin	7.832e-06	6752
bin	7.9032e-06	6413
bin	7.9744e-06	6505
bin	8.0456e-06	8554
bin	8.1168e-06	6436
bin	8.188e-06	6441
bin	8.2592e-06	6206
bin	8.3304e-06	10590
bin	8.4016e-06	6292
bin	8.4728e-06	6443
bin	8.544e-06	10498
bin	8.6152e-06	6730
bin	8.6864e-06	6360
bin	8.7576e-06	6322
bin	8.8288e-06	10477
bin	8.9e-06	6421
bin	8.9712e-06	6625
bin	9.0424e-06	6338
bin	9.1136e-06	8565
bin	9.1848e-06	6466
bin	9.256e-06	6362
bin	9.3272e-06	10551
bin	9.3984e-06	6572
bin	9.4696e-06	6360
bin	9.5408e-06	6319
bin	9.612e-06	10704
bin	9.6832e-06	6572
bin	9.7544e-06	6589
bin	9.8256e-06	6393
bin	9.8968e-06	6714
bin	9.968e-06	6554
bin	1.00392e-05	6546
bin	1.01104e-05	10507
bin	1.01816e-05	6794
bin	1.02528e-05	6580
bin	1.0324e-05	6427
bin	1.03952e-05	8626
bin	1.04664e-05	6645
bin	1.05376e-05	6762
bin	1.06088e-05	6534
bin	1.068e-05	8782
bin	1.07512e-05	6453
bin	1.08224e-05	6500
bin	1.08936e-05	8703
bin	1.09648e-05	6966
bin	1.1036e-05	6557
bin	1.11072e-05	6562
bin	1.11784e-05	10841
bin	1.12496e-05	6714
bin	1.13208e-05	6781
bin	1.1392e-05	6596
bin	1.14632e-05	10893
bin	1.15344e-05	6573
bin	1.16056e-05	6811
bin	1.16768e-05	10653
bin	1.1748e-05	6814
bin	1.18192e-05	6610
bin	1.18904e-05	6514
bin	1.19616e-05	10714
bin	1.20328e-05	7650
bin	1.2104e-05	6778
bin	1.21752e-05	6600
bin	1.22464e-05	10843
bin	1.23176e-05	6477
bin	1.23888e-05	7527
bin	1.246e-05	8633
bin	1.25312e-05	7700
bin	1.26024e-05	6527
bin	1.26736e-05	6507
bin	1.27448e-05	6718
bin	1.2816e-05	6544
bin	1.28872e-05	6704
bin	1.29584e-05	6553
bin	1.30296e-05	7570
bin	1.31008e-05	6344
bin	1.3172e-05	6605
bin	1.32432e-05	6645
bin	1.33144e-05	6734
bin	1.33856e-05	6551
bin	1.34568e-05	6483
bin	1.3528e-05	6564
bin	1.35992e-05	6486
bin	1.36704e-05	6487
bin	1.37416e-05	6505
bin	1.38128e-05	6647
bin	1.3884e-05	6446
bin	1.39552e-05	6703
bin	1.40264e-05	6607
bin	1.40976e-05	6728
bin	1.41688e-05	6696
bin	1.424e-05	6460
bin	1.43112e-05	6789
bin	1.43824e-05	6524
bin	1.44536e-05	6802
bin	1.45248e-05	6530
bin	1.4596e-05	6776
bin	1.46672e-05	6577
bin	1.47384e-05	6734
bin	1.48096e-05	6686
bin	1.48808e-05	6674
bin	1.4952e-05	6703
bin	1.50232e-05	6612
bin	1.50944e-05	6782
bin	1.51656e-05	6710
bin	1.52368e-05	6794
bin	1.5308e-05	6637
bin	1.53792e-05	6793
bin	1.54504e-05	6647
bin	1.55216e-05	6757
bin	1.55928e-05	6730
bin	1.5664e-05	6857
bin	1.57352e-05	6874
bin	1.58064e-05	6606
bin	1.58776e-05	6796
bin	1.59488e-05	6520
bin	1.602e-05	6774
bin	1.60912e-05	6784
bin	1.61624e-05	6934
bin	1.62336e-05	6607
bin	1.63048e-05	6844
bin	1.6376e-05	6754
bin	1.64472e-05	6876
bin	1.65184e-05	6747
bin	1.65896e-05	6603
bin	1.66608e-05	6945
bin	1.6732e-05	6757
bin	1.68032e-05	6875
bin	1.68744e-05	6870
bin	1.69456e-05	7076
bin	1.70168e-05	6630
bin	1.7088e-05	6876
bin	1.71592e-05	6631
bin	1.72304e-05	6956
bin	1.73016e-05	6798
bin	1.73728e-05	6827
bin	1.7444e-05	6915
bin	1.75152e-05	6966
bin	1.75864e-05	6982
bin	1.76576e-05	7108
bin	1.77288e-05	7127
bin	1.78e-05	6925
bin	1.78712e-05	6986
bin	1.79424e-05	6886
bin	1.80136e-05	7016
bin	1.80848e-05	6935
bin	1.8156e-05	6994
bin	1.82272e-05	7041
bin	1.82984e-05	6904
bin	1.83696e-05	6951
bin	1.84408e-05	7085
bin	1.8512e-05	7199
bin	1.85832e-05	6909
bin	1.86544e-05	6984
bin	1.87256e-05	7055
bin	1.87968e-05	7100
bin	1.8868e-05	7116
bin	1.89392e-05	6823
bin	1.90104e-05	7192
bin	1.90816e-05	6960
bin	1.91528e-05	6992
bin	1.9224e-05	6939
bin	1.92952e-05	6971
bin	1.93664e-05	6930
bin	1.94376e-05	6878
bin	1.95088e-05	6956
bin	1.958e-05	7114
bin	1.96512e-05	7117
bin	1.97224e-05	6884
bin	1.97936e-05	7057
bin	1.98648e-05	7022
bin	1.9936e-05	6922
bin	2.00072e-05	7048
bin	2.00784e-05	7152
bin	2.01496e-05	7067
bin	2.02208e-05	7023
bin	2.0292e-05	7179
bin	2.03632e-05	7059
bin	2.04344e-05	6938
bin	2.05056e-05	6993
bin	2.05768e-05	7197
bin	2.0648e-05	7203
bin	2.07192e-05	7102
bin	2.07904e-05	7018
bin	2.08616e-05	7138
bin	2.09328e-05	6923
bin	2.1004e-05	7118
bin	2.10752e-05	7037
bin	2.11464e-05	7288
bin	2.12176e-05	7126
bin	2.12888e-05	6955
bin	2.136e-05	7240
bin	2.14312e-05	7119
bin	2.15024e-05	7062
bin	2.15736e-05	7021
bin	2.16448e-05	7142
bin	2.1716e-05	7072
bin	2.17872e-05	6976
bin	2.18584e-05	7007
bin	2.19296e-05	7138
bin	2.20008e-05	7171
bin	2.2072e-05	7010
bin	2.21432e-05	7286
bin	2.22144e-05	7082
bin	2.22856e-05	7171
bin	2.23568e-05	7280
bin	2.2428e-05	7290
bin	2.24992e-05	7037
bin	2.25704e-05	7422
bin	2.26416e-05	7381
bin	2.27128e-05	7297
bin	2.2784e-05	7168
bin	2.28552e-05	7162
bin	2.29264e-05	7446
bin	2.29976e-05	7362
bin	2.30688e-05	7354
bin	2.314e-05	7207
bin	2.32112e-05	7366
bin	2.32824e-05	7186
bin	2.33536e-05	7136
bin	2.34248e-05	7165
bin	2.3496e-05	7274
bin	2.35672e-05	7215
bin	2.36384e-05	7180
bin	2.37096e-05	7022
bin	2.37808e-05	7256
bin	2.3852e-05	7147
bin	2.39232e-05	7162
bin	2.39944e-05	7284
bin	2.40656e-05	7208
bin	2.41368e-05	7194
bin	2.4208e-05	7291
bin	2.42792e-05	7318
bin	2.43504e-05	7184
bin	2.44216e-05	6993
bin	2.44928e-05	7281
bin	2.4564e-05	7415
bin	2.46352e-05	7172
bin	2.47064e-05	7126
bin	2.47776e-05	7277
bin	2.48488e-05	7230
bin	2.492e-05	7112
bin	2.49912e-05	7256
bin	2.50624e-05	7399
bin	2.51336e-05	7039
bin	2.52048e-05	7147
bin	2.5276e-05	7207
bin	2.53472e-05	7359
bin	2.54184e-05	7150
bin	2.54896e-05	7165
bin	2.55608e-05	7258
bin	2.5632e-05	7041
bin	2.57032e-05	7091
bin	2.57744e-05	7154
bin	2.58456e-05	7316
bin	2.59168e-05	7158
bin	2.5988e-05	7044
bin	2.60592e-05	7413
bin	2.61304e-05	7207
bin	2.62016e-05	7100
bin	2.62728e-05	7183
bin	2.6344e-05	7338
bin	2.64152e-05	7077
bin	2.64864e-05	7270
bin	2.65576e-05	7132
bin	2.66288e-05	7334
bin	2.67e-05	7136
bin	2.67712e-05	7037
bin	2.68424e-05	7192
bin	2.69136e-05	7209
bin	2.69848e-05	7102
bin	2.7056e-05	7350
bin	2.71272e-05	7501
bin	2.71984e-05	7150
bin	2.72696e-05	7253
bin	2.73408e-05	7130
bin	2.7412e-05	7308
bin	2.74832e-05	7154
bin	2.75544e-05	7121
bin	2.76256e-05	7254
bin	2.76968e-05	7178
bin	2.7768e-05	7194
bin	2.78392e-05	7196
bin	2.79104e-05	7433
bin	2.79816e-05	7108
bin	2.80528e-05	7107
bin	2.8124e-05	7171
bin	2.81952e-05	7348
bin	2.82664e-05	7216
bin	2.83376e-05	7256
bin	2.84088e-05	7201
bin	2.848e-05	7226
bin	2.85512e-05	7270
bin	2.86224e-05	7111
bin	2.86936e-05	7379
bin	2.87648e-05	7153
bin	2.8836e-05	7272
bin	2.89072e-05	7206
bin	2.89784e-05	7407
bin	2.90496e-05	7120
bin	2.91208e-05	7080
bin	2.9192e-05	7323
bin	2.92632e-05	7268
bin	2.93344e-05	7226
bin	2.94056e-05	7319
bin	2.94768e-05	7306
bin	2.9548e-05	7216
bin	2.96192e-05	7251
bin	2.96904e-05	7203
bin	2.97616e-05	7327
bin	2.98328e-05	7223
bin	2.9904e-05	7153
bin	2.99752e-05	7528
bin	3.00464e-05	7489
bin	3.01176e-05	7379
bin	3.01888e-05	7217
bin	3.026e-05	7544
bin	3.03312e-05	7265
bin	3.04024e-05	7254
bin	3.04736e-05	7343
bin	3.05448e-05	7532
bin	3.0616e-05	7414
bin	3.06872e-05	7333
bin	3.07584e-05	7458
bin	3.08296e-05	7397
bin	3.09008e-05	7392
bin	3.0972e-05	7409
bin	3.10432e-05	7515
bin	3.11144e-05	7292
bin	3.11856e-05	7423
bin	3.12568e-05	7421
bin	3.1328e-05	7546
bin	3.13992e-05	7351
bin	3.14704e-05	7250
bin	3.15416e-05	7501
bin	3.16128e-05	7425
bin	3.1684e-05	7398
bin	3.17552e-05	7198
bin	3.18264e-05	7491
bin	3.18976e-05	7065
bin	3.19688e-05	7262
bin	3.204e-05	7303
bin	3.21112e-05	7541
bin	3.21824e-05	7136
bin	3.22536e-05	6999
bin	3.23248e-05	7216
bin	3.2396e-05	7250
bin	3.24672e-05	7044
bin	3.25384e-05	7083
bin	3.26096e-05	7314
bin	3.26808e-05	7090
bin	3.2752e-05	6980
bin	3.28232e-05	7023
bin	3.28944e-05	7043
bin	3.29656e-05	7143
bin	3.30368e-05	6974
bin	3.3108e-05	7025
bin	3.31792e-05	7086
bin	3.32504e-05	7248
bin	3.33216e-05	6996
bin	3.33928e-05	7145
bin	3.3464e-05	7110
bin	3.35352e-05	7113
bin	3.36064e-05	7071
bin	3.36776e-05	7388
bin	3.37488e-05	7136
bin	3.382e-05	7035
bin	3.38912e-05	7197
bin	3.39624e-05	7319
bin	3.40336e-05	7289
bin	3.41048e-05	7102
bin	3.4176e-05	7220
bin	3.42472e-05	6816
bin	3.43184e-05	7040
bin	3.43896e-05	7025
bin	3.44608e-05	7088
bin	3.4532e-05	6974
bin	3.46032e-05	6904
bin	3.46744e-05	6927
bin	3.47456e-05	6922
bin	3.48168e-05	6880
bin	3.4888e-05	6847
bin	3.49592e-05	6912
bin	3.50304e-05	6733
bin	3.51016e-05	6845
bin	3.51728e-05	6784
bin	3.5244e-05	6899
bin	3.53152e-05	6899
bin	3.53864e-05	6930
bin	3.54576e-05	6918
bin	3.55288e-05	6983
bin	3.56e-05	2658453
statistic Torus3d_bub.timer 	"Life Times"
field count 6291456
field mean 0.00023392713361138
field stddev 0.00014590296585342
field sum 1471.7422683221
field sqrsum 0.47821090235901
field min 5.2e-07
field max 0.000773013666381
bin	-INF	0
bin	0	8329
bin	8.544e-07	21273
bin	1.7088e-06	21764
bin	2.5632e-06	24056
bin	3.4176e-06	18363
bin	4.272e-06	24767
bin	5.1264e-06	20706
bin	5.9808e-06	24333
bin	6.8352e-06	24299
bin	7.6896e-06	25559
bin	8.544e-06	23768
bin	9.3984e-06	29699
bin	1.02528e-05	23168
bin	1.11072e-05	25666
bin	1.19616e-05	39441
bin	1.2816e-05	16712
bin	1.36704e-05	10084
bin	1.45248e-05	13725
bin	1.53792e-05	15172
bin	1.62336e-05	17838
bin	1.7088e-05	14805
bin	1.79424e-05	16385
bin	1.87968e-05	12057
bin	1.96512e-05	12497
bin	2.05056e-05	12137
bin	2.136e-05	12638
bin	2.22144e-05	12304
bin	2.30688e-05	10824
bin	2.39232e-05	11879
bin	2.47776e-05	13311
bin	2.5632e-05	11448
bin	2.64864e-05	11579
bin	2.73408e-05	11454
bin	2.81952e-05	11048
bin	2.90496e-05	11357
bin	2.9904e-05	10648
bin	3.07584e-05	10833
bin	3.16128e-05	10578
bin	3.24672e-05	10822
bin	3.33216e-05	10750
bin	3.4176e-05	10761
bin	3.50304e-05	10592
bin	3.58848e-05	10593
bin	3.67392e-05	10453
bin	3.75936e-05	10560
bin	3.8448e-05	10735
bin	3.93024e-05	10429
bin	4.01568e-05	10813
bin	4.10112e-05	10799
bin	4.18656e-05	10980
bin	4.272e-05	10784
bin	4.35744e-05	11086
bin	4.44288e-05	10924
bin	4.52832e-05	10787
bin	4.61376e-05	10713
bin	4.6992e-05	10810
bin	4.78464e-05	10964
bin	4.87008e-05	10728
bin	4.95552e-05	10830
bin	5.04096e-05	10907
bin	5.1264e-05	10955
bin	5.21184e-05	10787
bin	5.29728e-05	10781
bin	5.38272e-05	10846
bin	5.46816e-05	10761
bin	5.5536e-05	10610
bin	5.63904e-05	10759
bin	5.72448e-05	11032
bin	5.80992e-05	10748
bin	5.89536e-05	10650
bin	5.9808e-05	10961
bin	6.06624e-05	10941
bin	6.15168e-05	10819
bin	6.23712e-05	10892
bin	6.32256e-05	10878
bin	6.408e-05	10693
bin	6.49344e-05	10563
bin	6.57888e-05	10386
bin	6.66432e-05	10367
bin	6.74976e-05	10262
bin	6.8352e-05	10347
bin	6.92064e-05	10550
bin	7.00608e-05	10217
bin	7.09152e-05	10099
bin	7.17696e-05	10142
bin	7.2624e-05	10213
bin	7.34784e-05	10234
bin	7.43328e-05	10325
bin	7.51872e-05	10147
bin	7.60416e-05	10122
bin	7.6896e-05	9996
bin	7.77504e-05	10186
bin	7.86048e-05	10165
bin	7.94592e-05	9982
bin	8.03136e-05	10011
bin	8.1168e-05	9886
bin	8.20224e-05	10056
bin	8.28768e-05	10011
bin	8.37312e-05	9868
bin	8.45856e-05	10023
bin	8.544e-05	9662
bin	8.62944e-05	9676
bin	8.71488e-05	9869
bin	8.80032e-05	9797
bin	8.88576e-05	9723
bin	8.9712e-05	9789
bin	9.05664e-05	9893
bin	9.14208e-05	10032
bin	9.22752e-05	9802
bin	9.31296e-05	9866
bin	9.3984e-05	9865
bin	9.48384e-05	9738
bin	9.56928e-05	9823
bin	9.65472e-05	9861
bin	9.74016e-05	9836
bin	9.8256e-05	9713
bin	9.91104e-05	9789
bin	9.99648e-05	9937
bin	0.0001008192	9902
bin	0.0001016736	9778
bin	0.000102528	9664
bin	0.0001033824	9890
bin	0.0001042368	9710
bin	0.0001050912	9643
bin	0.0001059456	9791
bin	0.0001068	9814
bin	0.0001076544	9629
bin	0.0001085088	9702
bin	0.0001093632	9643
bin	0.0001102176	9804
bin	0.000111072	9751
bin	0.0001119264	9925
bin	0.0001127808	10084
bin	0.0001136352	9854
bin	0.0001144896	9926
bin	0.000115344	10008
bin	0.0001161984	9980
bin	0.0001170528	9877
bin	0.0001179072	10021
bin	0.0001187616	9908
bin	0.000119616	10088
bin	0.0001204704	10109
bin	0.0001213248	10150
bin	0.0001221792	10023
bin	0.0001230336	9876
bin	0.000123888	9988
bin	0.0001247424	9993
bin	0.0001255968	10129
bin	0.0001264512	10128
bin	0.0001273056	10033
bin	0.00012816	10134
bin	0.0001290144	10113
bin	0.0001298688	10106
bin	0.0001307232	9927
bin	0.0001315776	10017
bin	0.000132432	10126
bin	0.0001332864	10298
bin	0.0001341408	10226
bin	0.0001349952	10321
bin	0.0001358496	10258
bin	0.000136704	10273
bin	0.0001375584	10487
bin	0.0001384128	10574
bin	0.0001392672	10528
bin	0.0001401216	10558
bin	0.000140976	10470
bin	0.0001418304	10613
bin	0.0001426848	10695
bin	0.0001435392	10668
bin	0.0001443936	10689
bin	0.000145248	10758
bin	0.0001461024	10635
bin	0.0001469568	10692
bin	0.0001478112	10605
bin	0.0001486656	10518
bin	0.00014952	10575
bin	0.0001503744	10633
bin	0.0001512288	10516
bin	0.0001520832	10575
bin	0.0001529376	10572
bin	0.000153792	10569
bin	0.0001546464	10722
bin	0.0001555008	10542
bin	0.0001563552	10528
bin	0.0001572096	10600
bin	0.000158064	10525
bin	0.0001589184	10691
bin	0.0001597728	10524
bin	0.0001606272	10475
bin	0.0001614816	10547
bin	0.000162336	10558
bin	0.0001631904	10543
bin	0.0001640448	10569
bin	0.0001648992	10789
bin	0.0001657536	10696
bin	0.000166608	10817
bin	0.0001674624	10684
bin	0.0001683168	10722
bin	0.0001691712	11004
bin	0.0001700256	10903
bin	0.00017088	11029
bin	0.0001717344	11097
bin	0.0001725888	11003
bin	0.0001734432	10890
bin	0.0001742976	11058
bin	0.000175152	11133
bin	0.0001760064	11111
bin	0.0001768608	11211
bin	0.0001777152	11213
bin	0.0001785696	11093
bin	0.000179424	11248
bin	0.0001802784	11446
bin	0.0001811328	11294
bin	0.0001819872	11291
bin	0.0001828416	11571
bin	0.000183696	11357
bin	0.0001845504	11457
bin	0.0001854048	11558
bin	0.0001862592	11546
bin	0.0001871136	11536
bin	0.000187968	11511
bin	0.0001888224	11629
bin	0.0001896768	11490
bin	0.0001905312	11690
bin	0.0001913856	11708
bin	0.00019224	11704
bin	0.0001930944	11487
bin	0.0001939488	11652
bin	0.0001948032	11684
bin	0.0001956576	11588
bin	0.000196512	11533
bin	0.0001973664	11682
bin	0.0001982208	11598
bin	0.0001990752	11616
bin	0.0001999296	11624
bin	0.000200784	11650
bin	0.0002016384	11801
bin	0.0002024928	11627
bin	0.0002033472	11659
bin	0.0002042016	11688
bin	0.000205056	11762
bin	0.0002059104	11846
bin	0.0002067648	11641
bin	0.0002076192	11742
bin	0.0002084736	12026
bin	0.000209328	11840
bin	0.0002101824	11937
bin	0.0002110368	11953
bin	0.0002118912	12091
bin	0.0002127456	12085
bin	0.0002136	12189
bin	0.0002144544	12147
bin	0.0002153088	12073
bin	0.0002161632	12193
bin	0.0002170176	12131
bin	0.000217872	12069
bin	0.0002187264	11931
bin	0.0002195808	11855
bin	0.0002204352	12097
bin	0.0002212896	12127
bin	0.000222144	11818
bin	0.0002229984	12057
bin	0.0002238528	12077
bin	0.0002247072	12113
bin	0.0002255616	12011
bin	0.000226416	12054
bin	0.0002272704	11937
bin	0.0002281248	12014
bin	0.0002289792	11927
bin	0.0002298336	12093
bin	0.000230688	12070
bin	0.0002315424	11714
bin	0.0002323968	12144
bin	0.0002332512	11983
bin	0.0002341056	11957
bin	0.00023496	11996
bin	0.0002358144	11856
bin	0.0002366688	12077
bin	0.0002375232	11951
bin	0.0002383776	12056
bin	0.000239232	11920
bin	0.0002400864	11881
bin	0.0002409408	11974
bin	0.0002417952	12018
bin	0.0002426496	12022
bin	0.000243504	12157
bin	0.0002443584	11912
bin	0.0002452128	12140
bin	0.0002460672	11989
bin	0.0002469216	11982
bin	0.000247776	12236
bin	0.0002486304	12090
bin	0.0002494848	11841
bin	0.0002503392	12051
bin	0.0002511936	11756
bin	0.000252048	11747
bin	0.0002529024	11624
bin	0.0002537568	11767
bin	0.0002546112	11684
bin	0.0002554656	11661
bin	0.00025632	11602
bin	0.0002571744	11454
bin	0.0002580288	11324
bin	0.0002588832	11367
bin	0.0002597376	11555
bin	0.000260592	11750
bin	0.0002614464	11670
bin	0.0002623008	11552
bin	0.0002631552	11296
bin	0.0002640096	11480
bin	0.000264864	11521
bin	0.0002657184	11243
bin	0.0002665728	11402
bin	0.0002674272	11310
bin	0.0002682816	11438
bin	0.000269136	11412
bin	0.0002699904	11315
bin	0.0002708448	11485
bin	0.0002716992	11622
bin	0.0002725536	11566
bin	0.000273408	11554
bin	0.0002742624	11387
bin	0.0002751168	11562
bin	0.0002759712	11384
bin	0.0002768256	11504
bin	0.00027768	11386
bin	0.0002785344	11402
bin	0.0002793888	11346
bin	0.0002802432	11391
bin	0.0002810976	11317
bin	0.000281952	11344
bin	0.0002828064	11387
bin	0.0002836608	11360
bin	0.0002845152	11153
bin	0.0002853696	11092
bin	0.000286224	11016
bin	0.0002870784	11165
bin	0.0002879328	11026
bin	0.0002887872	11256
bin	0.0002896416	10974
bin	0.000290496	10914
bin	0.0002913504	11094
bin	0.0002922048	11123
bin	0.0002930592	11005
bin	0.0002939136	11014
bin	0.000294768	10977
bin	0.0002956224	11087
bin	0.0002964768	10925
bin	0.0002973312	10901
bin	0.0002981856	11113
bin	0.00029904	11181
bin	0.0002998944	10932
bin	0.0003007488	10791
bin	0.0003016032	10841
bin	0.0003024576	10871
bin	0.000303312	10947
bin	0.0003041664	10848
bin	0.0003050208	10953
bin	0.0003058752	10710
bin	0.0003067296	10699
bin	0.000307584	10870
bin	0.0003084384	10583
bin	0.0003092928	10611
bin	0.0003101472	10804
bin	0.0003110016	10856
bin	0.000311856	10947
bin	0.0003127104	10885
bin	0.0003135648	10805
bin	0.0003144192	10701
bin	0.0003152736	10695
bin	0.000316128	10614
bin	0.0003169824	10565
bin	0.0003178368	10590
bin	0.0003186912	10736
bin	0.0003195456	10603
bin	0.0003204	10551
bin	0.0003212544	10821
bin	0.0003221088	10477
bin	0.0003229632	10568
bin	0.0003238176	10472
bin	0.000324672	10391
bin	0.0003255264	10406
bin	0.0003263808	10337
bin	0.0003272352	10347
bin	0.0003280896	10377
bin	0.000328944	10415
bin	0.0003297984	10383
bin	0.0003306528	10394
bin	0.0003315072	10313
bin	0.0003323616	10188
bin	0.000333216	10262
bin	0.0003340704	10187
bin	0.0003349248	10251
bin	0.0003357792	10195
bin	0.0003366336	10170
bin	0.000337488	10206
bin	0.0003383424	10237
bin	0.0003391968	10318
bin	0.0003400512	10277
bin	0.0003409056	10319
bin	0.00034176	10209
bin	0.0003426144	10390
bin	0.0003434688	10324
bin	0.0003443232	10507
bin	0.0003451776	10431
bin	0.000346032	10317
bin	0.0003468864	10444
bin	0.0003477408	10415
bin	0.0003485952	10238
bin	0.0003494496	10283
bin	0.000350304	10234
bin	0.0003511584	10390
bin	0.0003520128	10489
bin	0.0003528672	10488
bin	0.0003537216	10390
bin	0.000354576	10276
bin	0.0003554304	10231
bin	0.0003562848	10284
bin	0.0003571392	10346
bin	0.0003579936	10229
bin	0.000358848	10283
bin	0.0003597024	10416
bin	0.0003605568	10475
bin	0.0003614112	10187
bin	0.0003622656	10240
bin	0.00036312	10497
bin	0.0003639744	10383
bin	0.0003648288	10288
bin	0.0003656832	10342
bin	0.0003665376	10243
bin	0.000367392	10242
bin	0.0003682464	10278
bin	0.0003691008	10328
bin	0.0003699552	10382
bin	0.0003708096	10288
bin	0.000371664	10157
bin	0.0003725184	10300
bin	0.0003733728	10265
bin	0.0003742272	10196
bin	0.0003750816	10379
bin	0.000375936	10229
bin	0.0003767904	10165
bin	0.0003776448	10367
bin	0.0003784992	10103
bin	0.0003793536	10150
bin	0.000380208	10164
bin	0.0003810624	10271
bin	0.0003819168	10180
bin	0.0003827712	10311
bin	0.0003836256	10042
bin	0.00038448	10193
bin	0.0003853344	10005
bin	0.0003861888	10080
bin	0.0003870432	9763
bin	0.0003878976	9901
bin	0.000388752	9771
bin	0.0003896064	9807
bin	0.0003904608	9965
bin	0.0003913152	9999
bin	0.0003921696	9816
bin	0.000393024	9892
bin	0.0003938784	9902
bin	0.0003947328	9900
bin	0.0003955872	9760
bin	0.0003964416	9691
bin	0.000397296	9750
bin	0.0003981504	9842
bin	0.0003990048	10032
bin	0.0003998592	9941
bin	0.0004007136	9925
bin	0.000401568	10147
bin	0.0004024224	10184
bin	0.0004032768	10065
bin	0.0004041312	10122
bin	0.0004049856	10037
bin	0.00040584	10180
bin	0.0004066944	10309
bin	0.0004075488	10182
bin	0.0004084032	10074
bin	0.0004092576	10217
bin	0.000410112	10093
bin	0.0004109664	10088
bin	0.0004118208	10219
bin	0.0004126752	10027
bin	0.0004135296	10067
bin	0.000414384	10159
bin	0.0004152384	10029
bin	0.0004160928	9892
bin	0.0004169472	9914
bin	0.0004178016	9745
bin	0.000418656	9817
bin	0.0004195104	9899
bin	0.0004203648	9707
bin	0.0004212192	9598
bin	0.0004220736	9557
bin	0.000422928	9762
bin	0.0004237824	9517
bin	0.0004246368	9761
bin	0.0004254912	9617
bin	0.0004263456	9736
bin	0.0004272	689601
