version 2
run Butterfly-14-20120709-10:43:08-22753
attr alg 2
attr buf 8
attr configname Butterfly
attr datetime 20120709-10:43:08
attr delta 0.8
attr experiment Butterfly
attr ext true
attr inifile altro.ini
attr iterationvars "$buf=8, $ext=true, $ofedge=1, $delta=0.8, $alg=2"
attr iterationvars2 "$buf=8, $ext=true, $ofedge=1, $delta=0.8, $alg=2, $repetition=0"
attr measurement "$buf=8, $ext=true, $ofedge=1, $delta=0.8, $alg=2"
attr network Torus3d_bub
attr ofedge 1
attr processid 22753
attr repetition 0
attr replication #0
attr resultdir altro-results
attr runnumber 14
attr seedset 14

scalar . 	alg 	2
scalar . 	buf 	8
scalar . 	delta 	0.8
scalar . 	ofedge 	1
scalar Torus3d_bub.timer 	#endTime 	0.001125379331867
scalar Torus3d_bub.timer 	#totalHops 	41785024
scalar Torus3d_bub.timer 	#totalPacks 	6291456
scalar Torus3d_bub.timer 	#totalDerouted 	2317376
scalar Torus3d_bub.timer 	#totalOutFlanked 	0
scalar Torus3d_bub.timer 	#totalCQRed 	2317376
scalar Torus3d_bub.timer 	#LB 	0.000786432
scalar Torus3d_bub.timer 	#ratio 	0.69881503749968
statistic Torus3d_bub.timer 	"Hop Times"
field count 6291456
field mean 2.3505645441067e-05
field stddev 3.1520150432183e-05
field sum 147.88473404407
field sqrsum 0.0097268117617688
field min 4.03166552e-07
field max 0.000307096332163
bin	-INF	0
bin	0	0
bin	7.12e-08	0
bin	1.424e-07	0
bin	2.136e-07	0
bin	2.848e-07	0
bin	3.56e-07	56
bin	4.272e-07	880
bin	4.984e-07	5640
bin	5.696e-07	4760
bin	6.408e-07	6712
bin	7.12e-07	9472
bin	7.832e-07	5648
bin	8.544e-07	7840
bin	9.256e-07	17680
bin	9.968e-07	13640
bin	1.068e-06	11272
bin	1.1392e-06	19416
bin	1.2104e-06	26704
bin	1.2816e-06	17608
bin	1.3528e-06	17560
bin	1.424e-06	25520
bin	1.4952e-06	30768
bin	1.5664e-06	36328
bin	1.6376e-06	31528
bin	1.7088e-06	35512
bin	1.78e-06	21528
bin	1.8512e-06	21400
bin	1.9224e-06	36216
bin	1.9936e-06	36408
bin	2.0648e-06	23328
bin	2.136e-06	26536
bin	2.2072e-06	19624
bin	2.2784e-06	22600
bin	2.3496e-06	20440
bin	2.4208e-06	18584
bin	2.492e-06	24136
bin	2.5632e-06	14304
bin	2.6344e-06	16944
bin	2.7056e-06	18072
bin	2.7768e-06	23896
bin	2.848e-06	17112
bin	2.9192e-06	19248
bin	2.9904e-06	18800
bin	3.0616e-06	19240
bin	3.1328e-06	18504
bin	3.204e-06	19672
bin	3.2752e-06	29144
bin	3.3464e-06	17928
bin	3.4176e-06	19888
bin	3.4888e-06	20784
bin	3.56e-06	26360
bin	3.6312e-06	19496
bin	3.7024e-06	22024
bin	3.7736e-06	22672
bin	3.8448e-06	27088
bin	3.916e-06	22280
bin	3.9872e-06	21768
bin	4.0584e-06	24568
bin	4.1296e-06	20768
bin	4.2008e-06	18992
bin	4.272e-06	23592
bin	4.3432e-06	24672
bin	4.4144e-06	15920
bin	4.4856e-06	19840
bin	4.5568e-06	19688
bin	4.628e-06	22312
bin	4.6992e-06	16080
bin	4.7704e-06	21112
bin	4.8416e-06	24096
bin	4.9128e-06	18904
bin	4.984e-06	18400
bin	5.0552e-06	21944
bin	5.1264e-06	26744
bin	5.1976e-06	19240
bin	5.2688e-06	18248
bin	5.34e-06	20920
bin	5.4112e-06	28856
bin	5.4824e-06	21080
bin	5.5536e-06	22136
bin	5.6248e-06	24072
bin	5.696e-06	18504
bin	5.7672e-06	18424
bin	5.8384e-06	19304
bin	5.9096e-06	23616
bin	5.9808e-06	17480
bin	6.052e-06	19280
bin	6.1232e-06	19632
bin	6.1944e-06	23976
bin	6.2656e-06	18544
bin	6.3368e-06	19264
bin	6.408e-06	21192
bin	6.4792e-06	19688
bin	6.5504e-06	17816
bin	6.6216e-06	17896
bin	6.6928e-06	23104
bin	6.764e-06	20168
bin	6.8352e-06	17848
bin	6.9064e-06	21928
bin	6.9776e-06	22624
bin	7.0488e-06	20360
bin	7.12e-06	20960
bin	7.1912e-06	27232
bin	7.2624e-06	21896
bin	7.3336e-06	23432
bin	7.4048e-06	18488
bin	7.476e-06	27184
bin	7.5472e-06	20576
bin	7.6184e-06	20448
bin	7.6896e-06	16896
bin	7.7608e-06	23480
bin	7.832e-06	20368
bin	7.9032e-06	19088
bin	7.9744e-06	22560
bin	8.0456e-06	17424
bin	8.1168e-06	21720
bin	8.188e-06	18600
bin	8.2592e-06	18688
bin	8.3304e-06	20344
bin	8.4016e-06	21384
bin	8.4728e-06	20072
bin	8.544e-06	25848
bin	8.6152e-06	20432
bin	8.6864e-06	20296
bin	8.7576e-06	23872
bin	8.8288e-06	20504
bin	8.9e-06	20480
bin	8.9712e-06	22104
bin	9.0424e-06	21808
bin	9.1136e-06	20360
bin	9.1848e-06	22184
bin	9.256e-06	20864
bin	9.3272e-06	26016
bin	9.3984e-06	19336
bin	9.4696e-06	15112
bin	9.5408e-06	17552
bin	9.612e-06	20408
bin	9.6832e-06	20400
bin	9.7544e-06	20504
bin	9.8256e-06	21424
bin	9.8968e-06	24048
bin	9.968e-06	17512
bin	1.00392e-05	15520
bin	1.01104e-05	17232
bin	1.01816e-05	18616
bin	1.02528e-05	19512
bin	1.0324e-05	18608
bin	1.03952e-05	19840
bin	1.04664e-05	17216
bin	1.05376e-05	17272
bin	1.06088e-05	18392
bin	1.068e-05	20344
bin	1.07512e-05	16992
bin	1.08224e-05	18720
bin	1.08936e-05	16928
bin	1.09648e-05	17992
bin	1.1036e-05	17088
bin	1.11072e-05	17464
bin	1.11784e-05	19192
bin	1.12496e-05	16328
bin	1.13208e-05	16744
bin	1.1392e-05	16536
bin	1.14632e-05	18040
bin	1.15344e-05	18200
bin	1.16056e-05	17584
bin	1.16768e-05	16968
bin	1.1748e-05	18256
bin	1.18192e-05	17736
bin	1.18904e-05	16520
bin	1.19616e-05	16616
bin	1.20328e-05	15472
bin	1.2104e-05	17144
bin	1.21752e-05	18952
bin	1.22464e-05	15672
bin	1.23176e-05	15224
bin	1.23888e-05	15152
bin	1.246e-05	20832
bin	1.25312e-05	15848
bin	1.26024e-05	17224
bin	1.26736e-05	13816
bin	1.27448e-05	15048
bin	1.2816e-05	14368
bin	1.28872e-05	15376
bin	1.29584e-05	16872
bin	1.30296e-05	14816
bin	1.31008e-05	13792
bin	1.3172e-05	13032
bin	1.32432e-05	15408
bin	1.33144e-05	13424
bin	1.33856e-05	14384
bin	1.34568e-05	13856
bin	1.3528e-05	13696
bin	1.35992e-05	12928
bin	1.36704e-05	14624
bin	1.37416e-05	12304
bin	1.38128e-05	14448
bin	1.3884e-05	13936
bin	1.39552e-05	13472
bin	1.40264e-05	13520
bin	1.40976e-05	12664
bin	1.41688e-05	13872
bin	1.424e-05	12792
bin	1.43112e-05	15024
bin	1.43824e-05	12376
bin	1.44536e-05	12176
bin	1.45248e-05	15120
bin	1.4596e-05	13000
bin	1.46672e-05	12248
bin	1.47384e-05	12328
bin	1.48096e-05	11000
bin	1.48808e-05	11872
bin	1.4952e-05	12392
bin	1.50232e-05	11400
bin	1.50944e-05	11560
bin	1.51656e-05	10696
bin	1.52368e-05	11576
bin	1.5308e-05	10488
bin	1.53792e-05	10808
bin	1.54504e-05	10528
bin	1.55216e-05	10480
bin	1.55928e-05	10008
bin	1.5664e-05	10456
bin	1.57352e-05	12512
bin	1.58064e-05	9352
bin	1.58776e-05	9200
bin	1.59488e-05	8224
bin	1.602e-05	9776
bin	1.60912e-05	8504
bin	1.61624e-05	8168
bin	1.62336e-05	8256
bin	1.63048e-05	8680
bin	1.6376e-05	8944
bin	1.64472e-05	9152
bin	1.65184e-05	8080
bin	1.65896e-05	7776
bin	1.66608e-05	9144
bin	1.6732e-05	8200
bin	1.68032e-05	9120
bin	1.68744e-05	8856
bin	1.69456e-05	7616
bin	1.70168e-05	7480
bin	1.7088e-05	7752
bin	1.71592e-05	8840
bin	1.72304e-05	7608
bin	1.73016e-05	7160
bin	1.73728e-05	8064
bin	1.7444e-05	7280
bin	1.75152e-05	7216
bin	1.75864e-05	7496
bin	1.76576e-05	8544
bin	1.77288e-05	7376
bin	1.78e-05	6584
bin	1.78712e-05	6888
bin	1.79424e-05	7432
bin	1.80136e-05	6456
bin	1.80848e-05	7080
bin	1.8156e-05	7320
bin	1.82272e-05	6112
bin	1.82984e-05	6736
bin	1.83696e-05	6480
bin	1.84408e-05	7672
bin	1.8512e-05	5960
bin	1.85832e-05	6056
bin	1.86544e-05	5752
bin	1.87256e-05	5592
bin	1.87968e-05	5304
bin	1.8868e-05	5296
bin	1.89392e-05	6136
bin	1.90104e-05	6200
bin	1.90816e-05	5544
bin	1.91528e-05	5200
bin	1.9224e-05	6152
bin	1.92952e-05	5184
bin	1.93664e-05	5424
bin	1.94376e-05	5232
bin	1.95088e-05	6096
bin	1.958e-05	5448
bin	1.96512e-05	4848
bin	1.97224e-05	5384
bin	1.97936e-05	4408
bin	1.98648e-05	4864
bin	1.9936e-05	4600
bin	2.00072e-05	4872
bin	2.00784e-05	4408
bin	2.01496e-05	4800
bin	2.02208e-05	4800
bin	2.0292e-05	5280
bin	2.03632e-05	4504
bin	2.04344e-05	4480
bin	2.05056e-05	4976
bin	2.05768e-05	4192
bin	2.0648e-05	4360
bin	2.07192e-05	4760
bin	2.07904e-05	4536
bin	2.08616e-05	4664
bin	2.09328e-05	4352
bin	2.1004e-05	4456
bin	2.10752e-05	3680
bin	2.11464e-05	4344
bin	2.12176e-05	3744
bin	2.12888e-05	4304
bin	2.136e-05	4184
bin	2.14312e-05	3696
bin	2.15024e-05	3968
bin	2.15736e-05	4648
bin	2.16448e-05	4024
bin	2.1716e-05	3960
bin	2.17872e-05	3376
bin	2.18584e-05	4568
bin	2.19296e-05	3480
bin	2.20008e-05	4304
bin	2.2072e-05	4312
bin	2.21432e-05	3736
bin	2.22144e-05	3144
bin	2.22856e-05	3680
bin	2.23568e-05	3424
bin	2.2428e-05	4520
bin	2.24992e-05	2944
bin	2.25704e-05	3840
bin	2.26416e-05	3560
bin	2.27128e-05	3728
bin	2.2784e-05	3480
bin	2.28552e-05	3576
bin	2.29264e-05	3840
bin	2.29976e-05	2896
bin	2.30688e-05	4248
bin	2.314e-05	3336
bin	2.32112e-05	3864
bin	2.32824e-05	3352
bin	2.33536e-05	3600
bin	2.34248e-05	7040
bin	2.3496e-05	3632
bin	2.35672e-05	3280
bin	2.36384e-05	3384
bin	2.37096e-05	4048
bin	2.37808e-05	2840
bin	2.3852e-05	2984
bin	2.39232e-05	8096
bin	2.39944e-05	3464
bin	2.40656e-05	3120
bin	2.41368e-05	3496
bin	2.4208e-05	7960
bin	2.42792e-05	3168
bin	2.43504e-05	2880
bin	2.44216e-05	7936
bin	2.44928e-05	2512
bin	2.4564e-05	3432
bin	2.46352e-05	2800
bin	2.47064e-05	2616
bin	2.47776e-05	3336
bin	2.48488e-05	2992
bin	2.492e-05	3072
bin	2.49912e-05	7208
bin	2.50624e-05	3248
bin	2.51336e-05	2424
bin	2.52048e-05	3248
bin	2.5276e-05	2880
bin	2.53472e-05	2384
bin	2.54184e-05	2936
bin	2.54896e-05	6768
bin	2.55608e-05	3512
bin	2.5632e-05	3616
bin	2.57032e-05	2456
bin	2.57744e-05	2856
bin	2.58456e-05	3080
bin	2.59168e-05	3264
bin	2.5988e-05	2472
bin	2.60592e-05	3728
bin	2.61304e-05	3400
bin	2.62016e-05	3408
bin	2.62728e-05	2728
bin	2.6344e-05	2632
bin	2.64152e-05	2928
bin	2.64864e-05	2896
bin	2.65576e-05	3120
bin	2.66288e-05	2912
bin	2.67e-05	3744
bin	2.67712e-05	2872
bin	2.68424e-05	2080
bin	2.69136e-05	3056
bin	2.69848e-05	3512
bin	2.7056e-05	2312
bin	2.71272e-05	3584
bin	2.71984e-05	2960
bin	2.72696e-05	2784
bin	2.73408e-05	2656
bin	2.7412e-05	2904
bin	2.74832e-05	3656
bin	2.75544e-05	2928
bin	2.76256e-05	2416
bin	2.76968e-05	3336
bin	2.7768e-05	3744
bin	2.78392e-05	2392
bin	2.79104e-05	2832
bin	2.79816e-05	3768
bin	2.80528e-05	2328
bin	2.8124e-05	2408
bin	2.81952e-05	3208
bin	2.82664e-05	3048
bin	2.83376e-05	2288
bin	2.84088e-05	2760
bin	2.848e-05	3032
bin	2.85512e-05	2736
bin	2.86224e-05	2640
bin	2.86936e-05	3464
bin	2.87648e-05	2760
bin	2.8836e-05	2368
bin	2.89072e-05	2240
bin	2.89784e-05	2672
bin	2.90496e-05	2896
bin	2.91208e-05	2328
bin	2.9192e-05	2368
bin	2.92632e-05	3272
bin	2.93344e-05	2912
bin	2.94056e-05	2256
bin	2.94768e-05	3144
bin	2.9548e-05	3152
bin	2.96192e-05	1720
bin	2.96904e-05	2360
bin	2.97616e-05	3096
bin	2.98328e-05	3968
bin	2.9904e-05	2336
bin	2.99752e-05	3232
bin	3.00464e-05	2120
bin	3.01176e-05	2648
bin	3.01888e-05	2608
bin	3.026e-05	1952
bin	3.03312e-05	3144
bin	3.04024e-05	2328
bin	3.04736e-05	1896
bin	3.05448e-05	2984
bin	3.0616e-05	3208
bin	3.06872e-05	1832
bin	3.07584e-05	2144
bin	3.08296e-05	2224
bin	3.09008e-05	2672
bin	3.0972e-05	1872
bin	3.10432e-05	2560
bin	3.11144e-05	2384
bin	3.11856e-05	2376
bin	3.12568e-05	2200
bin	3.1328e-05	1704
bin	3.13992e-05	2880
bin	3.14704e-05	2240
bin	3.15416e-05	1768
bin	3.16128e-05	2168
bin	3.1684e-05	2824
bin	3.17552e-05	1728
bin	3.18264e-05	2224
bin	3.18976e-05	2696
bin	3.19688e-05	1984
bin	3.204e-05	2056
bin	3.21112e-05	2040
bin	3.21824e-05	2488
bin	3.22536e-05	1880
bin	3.23248e-05	1920
bin	3.2396e-05	1640
bin	3.24672e-05	2664
bin	3.25384e-05	1728
bin	3.26096e-05	1512
bin	3.26808e-05	2616
bin	3.2752e-05	2088
bin	3.28232e-05	1520
bin	3.28944e-05	1912
bin	3.29656e-05	2480
bin	3.30368e-05	1512
bin	3.3108e-05	1792
bin	3.31792e-05	2000
bin	3.32504e-05	1560
bin	3.33216e-05	2080
bin	3.33928e-05	1864
bin	3.3464e-05	2136
bin	3.35352e-05	1784
bin	3.36064e-05	1912
bin	3.36776e-05	1656
bin	3.37488e-05	2480
bin	3.382e-05	2304
bin	3.38912e-05	1832
bin	3.39624e-05	2280
bin	3.40336e-05	1952
bin	3.41048e-05	1528
bin	3.4176e-05	1976
bin	3.42472e-05	2368
bin	3.43184e-05	1808
bin	3.43896e-05	2232
bin	3.44608e-05	2584
bin	3.4532e-05	1624
bin	3.46032e-05	2000
bin	3.46744e-05	1888
bin	3.47456e-05	1608
bin	3.48168e-05	1632
bin	3.4888e-05	1648
bin	3.49592e-05	1760
bin	3.50304e-05	2304
bin	3.51016e-05	2064
bin	3.51728e-05	1600
bin	3.5244e-05	2160
bin	3.53152e-05	2256
bin	3.53864e-05	1584
bin	3.54576e-05	1520
bin	3.55288e-05	2240
bin	3.56e-05	1211416
statistic Torus3d_bub.timer 	"Life Times"
field count 6291456
field mean 7.7777039097571e-05
field stddev 5.1733884818829e-05
field sum 489.33081929265
field sqrsum 0.054897119952098
field min 7.33331989e-07
field max 0.000320069665497
bin	-INF	0
bin	0	6624
bin	8.544e-07	34304
bin	1.7088e-06	50824
bin	2.5632e-06	41360
bin	3.4176e-06	42896
bin	4.272e-06	42440
bin	5.1264e-06	47416
bin	5.9808e-06	43392
bin	6.8352e-06	48424
bin	7.6896e-06	41648
bin	8.544e-06	52032
bin	9.3984e-06	35136
bin	1.02528e-05	31656
bin	1.11072e-05	33528
bin	1.19616e-05	27840
bin	1.2816e-05	28048
bin	1.36704e-05	27080
bin	1.45248e-05	28912
bin	1.53792e-05	24704
bin	1.62336e-05	26688
bin	1.7088e-05	31952
bin	1.79424e-05	33976
bin	1.87968e-05	32448
bin	1.96512e-05	33592
bin	2.05056e-05	40160
bin	2.136e-05	38736
bin	2.22144e-05	42904
bin	2.30688e-05	48552
bin	2.39232e-05	62448
bin	2.47776e-05	59992
bin	2.5632e-05	54960
bin	2.64864e-05	36928
bin	2.73408e-05	41560
bin	2.81952e-05	46888
bin	2.90496e-05	56080
bin	2.9904e-05	44384
bin	3.07584e-05	39256
bin	3.16128e-05	30992
bin	3.24672e-05	35152
bin	3.33216e-05	33664
bin	3.4176e-05	28624
bin	3.50304e-05	33496
bin	3.58848e-05	31424
bin	3.67392e-05	36672
bin	3.75936e-05	31688
bin	3.8448e-05	31856
bin	3.93024e-05	37616
bin	4.01568e-05	33952
bin	4.10112e-05	42800
bin	4.18656e-05	40088
bin	4.272e-05	37264
bin	4.35744e-05	40056
bin	4.44288e-05	37112
bin	4.52832e-05	35880
bin	4.61376e-05	40552
bin	4.6992e-05	39720
bin	4.78464e-05	36584
bin	4.87008e-05	35472
bin	4.95552e-05	36352
bin	5.04096e-05	33760
bin	5.1264e-05	36192
bin	5.21184e-05	34392
bin	5.29728e-05	33200
bin	5.38272e-05	35680
bin	5.46816e-05	37440
bin	5.5536e-05	39000
bin	5.63904e-05	36136
bin	5.72448e-05	36832
bin	5.80992e-05	40176
bin	5.89536e-05	37576
bin	5.9808e-05	37992
bin	6.06624e-05	35312
bin	6.15168e-05	35656
bin	6.23712e-05	37048
bin	6.32256e-05	34496
bin	6.408e-05	34096
bin	6.49344e-05	36584
bin	6.57888e-05	35312
bin	6.66432e-05	38160
bin	6.74976e-05	36040
bin	6.8352e-05	38304
bin	6.92064e-05	36360
bin	7.00608e-05	36048
bin	7.09152e-05	36376
bin	7.17696e-05	37992
bin	7.2624e-05	36896
bin	7.34784e-05	38216
bin	7.43328e-05	36240
bin	7.51872e-05	32872
bin	7.60416e-05	35040
bin	7.6896e-05	36712
bin	7.77504e-05	36640
bin	7.86048e-05	36632
bin	7.94592e-05	34536
bin	8.03136e-05	31408
bin	8.1168e-05	31928
bin	8.20224e-05	32256
bin	8.28768e-05	34584
bin	8.37312e-05	32544
bin	8.45856e-05	34240
bin	8.544e-05	33984
bin	8.62944e-05	34776
bin	8.71488e-05	33112
bin	8.80032e-05	35952
bin	8.88576e-05	34840
bin	8.9712e-05	33312
bin	9.05664e-05	33864
bin	9.14208e-05	34504
bin	9.22752e-05	34512
bin	9.31296e-05	33224
bin	9.3984e-05	32376
bin	9.48384e-05	32016
bin	9.56928e-05	31352
bin	9.65472e-05	31272
bin	9.74016e-05	31464
bin	9.8256e-05	29888
bin	9.91104e-05	31080
bin	9.99648e-05	31752
bin	0.0001008192	30664
bin	0.0001016736	30232
bin	0.000102528	30008
bin	0.0001033824	29584
bin	0.0001042368	30232
bin	0.0001050912	28144
bin	0.0001059456	30552
bin	0.0001068	27856
bin	0.0001076544	29080
bin	0.0001085088	27728
bin	0.0001093632	27936
bin	0.0001102176	28872
bin	0.000111072	28168
bin	0.0001119264	28312
bin	0.0001127808	28264
bin	0.0001136352	27224
bin	0.0001144896	27488
bin	0.000115344	27128
bin	0.0001161984	28184
bin	0.0001170528	28648
bin	0.0001179072	26544
bin	0.0001187616	27296
bin	0.000119616	25488
bin	0.0001204704	26720
bin	0.0001213248	26992
bin	0.0001221792	26696
bin	0.0001230336	26288
bin	0.000123888	24776
bin	0.0001247424	23448
bin	0.0001255968	23976
bin	0.0001264512	22712
bin	0.0001273056	22544
bin	0.00012816	21992
bin	0.0001290144	21792
bin	0.0001298688	21984
bin	0.0001307232	21176
bin	0.0001315776	20976
bin	0.000132432	21000
bin	0.0001332864	21016
bin	0.0001341408	20384
bin	0.0001349952	20584
bin	0.0001358496	20424
bin	0.000136704	21944
bin	0.0001375584	21336
bin	0.0001384128	20456
bin	0.0001392672	20448
bin	0.0001401216	19608
bin	0.000140976	20888
bin	0.0001418304	18328
bin	0.0001426848	17192
bin	0.0001435392	16168
bin	0.0001443936	17328
bin	0.000145248	17816
bin	0.0001461024	17912
bin	0.0001469568	16296
bin	0.0001478112	15480
bin	0.0001486656	15048
bin	0.00014952	17088
bin	0.0001503744	15352
bin	0.0001512288	16744
bin	0.0001520832	14408
bin	0.0001529376	13808
bin	0.000153792	14192
bin	0.0001546464	14360
bin	0.0001555008	14072
bin	0.0001563552	13200
bin	0.0001572096	12424
bin	0.000158064	12360
bin	0.0001589184	12416
bin	0.0001597728	11576
bin	0.0001606272	12168
bin	0.0001614816	11000
bin	0.000162336	11080
bin	0.0001631904	10480
bin	0.0001640448	10176
bin	0.0001648992	10256
bin	0.0001657536	9928
bin	0.000166608	10072
bin	0.0001674624	10088
bin	0.0001683168	9712
bin	0.0001691712	9128
bin	0.0001700256	8832
bin	0.00017088	8672
bin	0.0001717344	8120
bin	0.0001725888	8152
bin	0.0001734432	7960
bin	0.0001742976	8024
bin	0.000175152	8000
bin	0.0001760064	8040
bin	0.0001768608	7768
bin	0.0001777152	7016
bin	0.0001785696	6512
bin	0.000179424	6352
bin	0.0001802784	6448
bin	0.0001811328	6520
bin	0.0001819872	5848
bin	0.0001828416	5792
bin	0.000183696	5776
bin	0.0001845504	5544
bin	0.0001854048	5592
bin	0.0001862592	5680
bin	0.0001871136	5744
bin	0.000187968	5080
bin	0.0001888224	5336
bin	0.0001896768	5952
bin	0.0001905312	5552
bin	0.0001913856	4888
bin	0.00019224	4608
bin	0.0001930944	3952
bin	0.0001939488	4264
bin	0.0001948032	4224
bin	0.0001956576	4248
bin	0.000196512	3960
bin	0.0001973664	3912
bin	0.0001982208	3672
bin	0.0001990752	3312
bin	0.0001999296	3480
bin	0.000200784	3240
bin	0.0002016384	3104
bin	0.0002024928	2888
bin	0.0002033472	2696
bin	0.0002042016	3080
bin	0.000205056	3216
bin	0.0002059104	3168
bin	0.0002067648	3168
bin	0.0002076192	3008
bin	0.0002084736	2760
bin	0.000209328	2848
bin	0.0002101824	2840
bin	0.0002110368	2336
bin	0.0002118912	2312
bin	0.0002127456	2280
bin	0.0002136	2304
bin	0.0002144544	2128
bin	0.0002153088	2208
bin	0.0002161632	2200
bin	0.0002170176	1960
bin	0.000217872	2168
bin	0.0002187264	2216
bin	0.0002195808	2104
bin	0.0002204352	1744
bin	0.0002212896	1488
bin	0.000222144	1592
bin	0.0002229984	1592
bin	0.0002238528	1688
bin	0.0002247072	1528
bin	0.0002255616	1488
bin	0.000226416	1408
bin	0.0002272704	1248
bin	0.0002281248	1112
bin	0.0002289792	1144
bin	0.0002298336	1048
bin	0.000230688	928
bin	0.0002315424	1024
bin	0.0002323968	1112
bin	0.0002332512	1040
bin	0.0002341056	1000
bin	0.00023496	1096
bin	0.0002358144	1144
bin	0.0002366688	992
bin	0.0002375232	784
bin	0.0002383776	792
bin	0.000239232	856
bin	0.0002400864	904
bin	0.0002409408	808
bin	0.0002417952	776
bin	0.0002426496	752
bin	0.000243504	808
bin	0.0002443584	800
bin	0.0002452128	864
bin	0.0002460672	920
bin	0.0002469216	752
bin	0.000247776	656
bin	0.0002486304	456
bin	0.0002494848	568
bin	0.0002503392	448
bin	0.0002511936	544
bin	0.000252048	896
bin	0.0002529024	752
bin	0.0002537568	608
bin	0.0002546112	416
bin	0.0002554656	512
bin	0.00025632	616
bin	0.0002571744	440
bin	0.0002580288	504
bin	0.0002588832	400
bin	0.0002597376	320
bin	0.000260592	240
bin	0.0002614464	328
bin	0.0002623008	368
bin	0.0002631552	240
bin	0.0002640096	176
bin	0.000264864	240
bin	0.0002657184	328
bin	0.0002665728	240
bin	0.0002674272	320
bin	0.0002682816	184
bin	0.000269136	200
bin	0.0002699904	200
bin	0.0002708448	72
bin	0.0002716992	136
bin	0.0002725536	184
bin	0.000273408	128
bin	0.0002742624	128
bin	0.0002751168	136
bin	0.0002759712	88
bin	0.0002768256	128
bin	0.00027768	144
bin	0.0002785344	112
bin	0.0002793888	152
bin	0.0002802432	48
bin	0.0002810976	104
bin	0.000281952	96
bin	0.0002828064	56
bin	0.0002836608	64
bin	0.0002845152	112
bin	0.0002853696	112
bin	0.000286224	136
bin	0.0002870784	80
bin	0.0002879328	88
bin	0.0002887872	88
bin	0.0002896416	96
bin	0.000290496	128
bin	0.0002913504	80
bin	0.0002922048	64
bin	0.0002930592	56
bin	0.0002939136	40
bin	0.000294768	64
bin	0.0002956224	16
bin	0.0002964768	16
bin	0.0002973312	24
bin	0.0002981856	24
bin	0.00029904	56
bin	0.0002998944	16
bin	0.0003007488	24
bin	0.0003016032	16
bin	0.0003024576	0
bin	0.000303312	0
bin	0.0003041664	8
bin	0.0003050208	8
bin	0.0003058752	8
bin	0.0003067296	16
bin	0.000307584	24
bin	0.0003084384	32
bin	0.0003092928	32
bin	0.0003101472	0
bin	0.0003110016	16
bin	0.000311856	24
bin	0.0003127104	48
bin	0.0003135648	64
bin	0.0003144192	16
bin	0.0003152736	24
bin	0.000316128	0
bin	0.0003169824	40
bin	0.0003178368	24
bin	0.0003186912	24
bin	0.0003195456	24
bin	0.0003204	0
bin	0.0003212544	0
bin	0.0003221088	0
bin	0.0003229632	0
bin	0.0003238176	0
bin	0.000324672	0
bin	0.0003255264	0
bin	0.0003263808	0
bin	0.0003272352	0
bin	0.0003280896	0
bin	0.000328944	0
bin	0.0003297984	0
bin	0.0003306528	0
bin	0.0003315072	0
bin	0.0003323616	0
bin	0.000333216	0
bin	0.0003340704	0
bin	0.0003349248	0
bin	0.0003357792	0
bin	0.0003366336	0
bin	0.000337488	0
bin	0.0003383424	0
bin	0.0003391968	0
bin	0.0003400512	0
bin	0.0003409056	0
bin	0.00034176	0
bin	0.0003426144	0
bin	0.0003434688	0
bin	0.0003443232	0
bin	0.0003451776	0
bin	0.000346032	0
bin	0.0003468864	0
bin	0.0003477408	0
bin	0.0003485952	0
bin	0.0003494496	0
bin	0.000350304	0
bin	0.0003511584	0
bin	0.0003520128	0
bin	0.0003528672	0
bin	0.0003537216	0
bin	0.000354576	0
bin	0.0003554304	0
bin	0.0003562848	0
bin	0.0003571392	0
bin	0.0003579936	0
bin	0.000358848	0
bin	0.0003597024	0
bin	0.0003605568	0
bin	0.0003614112	0
bin	0.0003622656	0
bin	0.00036312	0
bin	0.0003639744	0
bin	0.0003648288	0
bin	0.0003656832	0
bin	0.0003665376	0
bin	0.000367392	0
bin	0.0003682464	0
bin	0.0003691008	0
bin	0.0003699552	0
bin	0.0003708096	0
bin	0.000371664	0
bin	0.0003725184	0
bin	0.0003733728	0
bin	0.0003742272	0
bin	0.0003750816	0
bin	0.000375936	0
bin	0.0003767904	0
bin	0.0003776448	0
bin	0.0003784992	0
bin	0.0003793536	0
bin	0.000380208	0
bin	0.0003810624	0
bin	0.0003819168	0
bin	0.0003827712	0
bin	0.0003836256	0
bin	0.00038448	0
bin	0.0003853344	0
bin	0.0003861888	0
bin	0.0003870432	0
bin	0.0003878976	0
bin	0.000388752	0
bin	0.0003896064	0
bin	0.0003904608	0
bin	0.0003913152	0
bin	0.0003921696	0
bin	0.000393024	0
bin	0.0003938784	0
bin	0.0003947328	0
bin	0.0003955872	0
bin	0.0003964416	0
bin	0.000397296	0
bin	0.0003981504	0
bin	0.0003990048	0
bin	0.0003998592	0
bin	0.0004007136	0
bin	0.000401568	0
bin	0.0004024224	0
bin	0.0004032768	0
bin	0.0004041312	0
bin	0.0004049856	0
bin	0.00040584	0
bin	0.0004066944	0
bin	0.0004075488	0
bin	0.0004084032	0
bin	0.0004092576	0
bin	0.000410112	0
bin	0.0004109664	0
bin	0.0004118208	0
bin	0.0004126752	0
bin	0.0004135296	0
bin	0.000414384	0
bin	0.0004152384	0
bin	0.0004160928	0
bin	0.0004169472	0
bin	0.0004178016	0
bin	0.000418656	0
bin	0.0004195104	0
bin	0.0004203648	0
bin	0.0004212192	0
bin	0.0004220736	0
bin	0.000422928	0
bin	0.0004237824	0
bin	0.0004246368	0
bin	0.0004254912	0
bin	0.0004263456	0
bin	0.0004272	0
