version 2
run Butterfly-137-20120709-13:57:04-24181
attr alg 1
attr buf 8
attr configname Butterfly
attr datetime 20120709-13:57:04
attr delta 2.2
attr experiment Butterfly
attr ext false
attr inifile altro.ini
attr iterationvars "$buf=8, $ext=false, $ofedge=1, $delta=2.2, $alg=1"
attr iterationvars2 "$buf=8, $ext=false, $ofedge=1, $delta=2.2, $alg=1, $repetition=0"
attr measurement "$buf=8, $ext=false, $ofedge=1, $delta=2.2, $alg=1"
attr network Torus3d_bub
attr ofedge 1
attr processid 24181
attr repetition 0
attr replication #0
attr resultdir altro-results
attr runnumber 137
attr seedset 137

scalar . 	alg 	1
scalar . 	buf 	8
scalar . 	delta 	2.2
scalar . 	ofedge 	1
scalar Torus3d_bub.timer 	#endTime 	0.000833541665387
scalar Torus3d_bub.timer 	#totalHops 	35798999
scalar Torus3d_bub.timer 	#totalPacks 	6291456
scalar Torus3d_bub.timer 	#totalDerouted 	4191909
scalar Torus3d_bub.timer 	#totalOutFlanked 	4191909
scalar Torus3d_bub.timer 	#totalCQRed 	0
scalar Torus3d_bub.timer 	#LB 	0.000786432
scalar Torus3d_bub.timer 	#ratio 	0.94348253081611
statistic Torus3d_bub.timer 	"Hop Times"
field count 6291456
field mean 4.4828272424758e-05
field stddev 5.2576491619795e-05
field sum 282.03510351638
field sqrsum 0.030034536684929
field min 4.74686858e-07
field max 0.00050395412076
bin	-INF	0
bin	0	0
bin	7.12e-08	0
bin	1.424e-07	0
bin	2.136e-07	0
bin	2.848e-07	0
bin	3.56e-07	0
bin	4.272e-07	1
bin	4.984e-07	4104
bin	5.696e-07	17
bin	6.408e-07	26
bin	7.12e-07	4138
bin	7.832e-07	62
bin	8.544e-07	86
bin	9.256e-07	3181
bin	9.968e-07	9330
bin	1.068e-06	1440
bin	1.1392e-06	3649
bin	1.2104e-06	5634
bin	1.2816e-06	8961
bin	1.3528e-06	7383
bin	1.424e-06	4553
bin	1.4952e-06	10729
bin	1.5664e-06	6365
bin	1.6376e-06	7297
bin	1.7088e-06	8632
bin	1.78e-06	10192
bin	1.8512e-06	7465
bin	1.9224e-06	7939
bin	1.9936e-06	8186
bin	2.0648e-06	10242
bin	2.136e-06	5844
bin	2.2072e-06	6345
bin	2.2784e-06	13922
bin	2.3496e-06	8198
bin	2.4208e-06	9956
bin	2.492e-06	7493
bin	2.5632e-06	12095
bin	2.6344e-06	9746
bin	2.7056e-06	9937
bin	2.7768e-06	9802
bin	2.848e-06	12722
bin	2.9192e-06	7421
bin	2.9904e-06	8203
bin	3.0616e-06	14296
bin	3.1328e-06	9774
bin	3.204e-06	10066
bin	3.2752e-06	8095
bin	3.3464e-06	11242
bin	3.4176e-06	11457
bin	3.4888e-06	7200
bin	3.56e-06	4933
bin	3.6312e-06	13289
bin	3.7024e-06	8623
bin	3.7736e-06	6854
bin	3.8448e-06	14735
bin	3.916e-06	4757
bin	3.9872e-06	4586
bin	4.0584e-06	4803
bin	4.1296e-06	8599
bin	4.2008e-06	8632
bin	4.272e-06	4467
bin	4.3432e-06	4478
bin	4.4144e-06	8762
bin	4.4856e-06	4299
bin	4.5568e-06	4507
bin	4.628e-06	8466
bin	4.6992e-06	4582
bin	4.7704e-06	4636
bin	4.8416e-06	4620
bin	4.9128e-06	8557
bin	4.984e-06	4521
bin	5.0552e-06	4601
bin	5.1264e-06	4808
bin	5.1976e-06	8969
bin	5.2688e-06	4536
bin	5.34e-06	4838
bin	5.4112e-06	8743
bin	5.4824e-06	4943
bin	5.5536e-06	4961
bin	5.6248e-06	5020
bin	5.696e-06	8997
bin	5.7672e-06	5032
bin	5.8384e-06	5206
bin	5.9096e-06	5222
bin	5.9808e-06	9542
bin	6.052e-06	5386
bin	6.1232e-06	5494
bin	6.1944e-06	9514
bin	6.2656e-06	5216
bin	6.3368e-06	5362
bin	6.408e-06	5338
bin	6.4792e-06	9463
bin	6.5504e-06	5437
bin	6.6216e-06	5608
bin	6.6928e-06	5349
bin	6.764e-06	9727
bin	6.8352e-06	5454
bin	6.9064e-06	5542
bin	6.9776e-06	9609
bin	7.0488e-06	5433
bin	7.12e-06	5740
bin	7.1912e-06	5555
bin	7.2624e-06	9698
bin	7.3336e-06	5564
bin	7.4048e-06	5460
bin	7.476e-06	5410
bin	7.5472e-06	9785
bin	7.6184e-06	5505
bin	7.6896e-06	5444
bin	7.7608e-06	9497
bin	7.832e-06	5485
bin	7.9032e-06	5725
bin	7.9744e-06	5491
bin	8.0456e-06	5613
bin	8.1168e-06	5691
bin	8.188e-06	5694
bin	8.2592e-06	5670
bin	8.3304e-06	9820
bin	8.4016e-06	5652
bin	8.4728e-06	5731
bin	8.544e-06	9803
bin	8.6152e-06	5856
bin	8.6864e-06	5999
bin	8.7576e-06	5870
bin	8.8288e-06	8035
bin	8.9e-06	5957
bin	8.9712e-06	6012
bin	9.0424e-06	6038
bin	9.1136e-06	10093
bin	9.1848e-06	6125
bin	9.256e-06	6119
bin	9.3272e-06	6126
bin	9.3984e-06	6259
bin	9.4696e-06	6332
bin	9.5408e-06	6336
bin	9.612e-06	8407
bin	9.6832e-06	6375
bin	9.7544e-06	6410
bin	9.8256e-06	6531
bin	9.8968e-06	10549
bin	9.968e-06	6519
bin	1.00392e-05	6603
bin	1.01104e-05	8586
bin	1.01816e-05	6572
bin	1.02528e-05	6764
bin	1.0324e-05	6629
bin	1.03952e-05	6724
bin	1.04664e-05	6821
bin	1.05376e-05	6623
bin	1.06088e-05	6635
bin	1.068e-05	8656
bin	1.07512e-05	6610
bin	1.08224e-05	6530
bin	1.08936e-05	10604
bin	1.09648e-05	6586
bin	1.1036e-05	6625
bin	1.11072e-05	6621
bin	1.11784e-05	8810
bin	1.12496e-05	6808
bin	1.13208e-05	6829
bin	1.1392e-05	6826
bin	1.14632e-05	10841
bin	1.15344e-05	6859
bin	1.16056e-05	6871
bin	1.16768e-05	8903
bin	1.1748e-05	6967
bin	1.18192e-05	6923
bin	1.18904e-05	6797
bin	1.19616e-05	11007
bin	1.20328e-05	6858
bin	1.2104e-05	6867
bin	1.21752e-05	6881
bin	1.22464e-05	9006
bin	1.23176e-05	7174
bin	1.23888e-05	7008
bin	1.246e-05	11278
bin	1.25312e-05	7175
bin	1.26024e-05	7231
bin	1.26736e-05	7213
bin	1.27448e-05	9333
bin	1.2816e-05	7352
bin	1.28872e-05	7436
bin	1.29584e-05	7183
bin	1.30296e-05	7418
bin	1.31008e-05	7216
bin	1.3172e-05	7345
bin	1.32432e-05	7257
bin	1.33144e-05	7330
bin	1.33856e-05	7554
bin	1.34568e-05	7357
bin	1.3528e-05	7589
bin	1.35992e-05	7497
bin	1.36704e-05	7612
bin	1.37416e-05	7603
bin	1.38128e-05	7544
bin	1.3884e-05	7378
bin	1.39552e-05	7660
bin	1.40264e-05	7595
bin	1.40976e-05	7747
bin	1.41688e-05	7766
bin	1.424e-05	7658
bin	1.43112e-05	7840
bin	1.43824e-05	7988
bin	1.44536e-05	7801
bin	1.45248e-05	7705
bin	1.4596e-05	7935
bin	1.46672e-05	7835
bin	1.47384e-05	7853
bin	1.48096e-05	7900
bin	1.48808e-05	8043
bin	1.4952e-05	8059
bin	1.50232e-05	8022
bin	1.50944e-05	8062
bin	1.51656e-05	8220
bin	1.52368e-05	8268
bin	1.5308e-05	8202
bin	1.53792e-05	8050
bin	1.54504e-05	8172
bin	1.55216e-05	8359
bin	1.55928e-05	8087
bin	1.5664e-05	8144
bin	1.57352e-05	7889
bin	1.58064e-05	8212
bin	1.58776e-05	8154
bin	1.59488e-05	8389
bin	1.602e-05	8186
bin	1.60912e-05	8248
bin	1.61624e-05	8192
bin	1.62336e-05	8189
bin	1.63048e-05	8457
bin	1.6376e-05	8441
bin	1.64472e-05	8444
bin	1.65184e-05	8207
bin	1.65896e-05	8424
bin	1.66608e-05	8251
bin	1.6732e-05	8410
bin	1.68032e-05	8252
bin	1.68744e-05	8275
bin	1.69456e-05	8374
bin	1.70168e-05	8230
bin	1.7088e-05	8170
bin	1.71592e-05	8286
bin	1.72304e-05	8285
bin	1.73016e-05	8109
bin	1.73728e-05	8355
bin	1.7444e-05	8258
bin	1.75152e-05	8368
bin	1.75864e-05	8247
bin	1.76576e-05	8397
bin	1.77288e-05	8259
bin	1.78e-05	8343
bin	1.78712e-05	8268
bin	1.79424e-05	8365
bin	1.80136e-05	8590
bin	1.80848e-05	8345
bin	1.8156e-05	8495
bin	1.82272e-05	8346
bin	1.82984e-05	8432
bin	1.83696e-05	8465
bin	1.84408e-05	8352
bin	1.8512e-05	8330
bin	1.85832e-05	8237
bin	1.86544e-05	8348
bin	1.87256e-05	8466
bin	1.87968e-05	8423
bin	1.8868e-05	8591
bin	1.89392e-05	8329
bin	1.90104e-05	8421
bin	1.90816e-05	8469
bin	1.91528e-05	8238
bin	1.9224e-05	8348
bin	1.92952e-05	8233
bin	1.93664e-05	8183
bin	1.94376e-05	8311
bin	1.95088e-05	8361
bin	1.958e-05	8468
bin	1.96512e-05	8344
bin	1.97224e-05	8350
bin	1.97936e-05	8460
bin	1.98648e-05	8387
bin	1.9936e-05	8313
bin	2.00072e-05	8406
bin	2.00784e-05	8467
bin	2.01496e-05	8350
bin	2.02208e-05	8480
bin	2.0292e-05	8631
bin	2.03632e-05	8338
bin	2.04344e-05	8573
bin	2.05056e-05	8585
bin	2.05768e-05	8599
bin	2.0648e-05	8455
bin	2.07192e-05	8430
bin	2.07904e-05	8509
bin	2.08616e-05	8649
bin	2.09328e-05	8404
bin	2.1004e-05	8491
bin	2.10752e-05	8407
bin	2.11464e-05	8457
bin	2.12176e-05	8528
bin	2.12888e-05	8636
bin	2.136e-05	8486
bin	2.14312e-05	8655
bin	2.15024e-05	8520
bin	2.15736e-05	8530
bin	2.16448e-05	8592
bin	2.1716e-05	8417
bin	2.17872e-05	8498
bin	2.18584e-05	8345
bin	2.19296e-05	8389
bin	2.20008e-05	8454
bin	2.2072e-05	8551
bin	2.21432e-05	8581
bin	2.22144e-05	8298
bin	2.22856e-05	8420
bin	2.23568e-05	8454
bin	2.2428e-05	8566
bin	2.24992e-05	8312
bin	2.25704e-05	8440
bin	2.26416e-05	8606
bin	2.27128e-05	8394
bin	2.2784e-05	8537
bin	2.28552e-05	8641
bin	2.29264e-05	8460
bin	2.29976e-05	8591
bin	2.30688e-05	8481
bin	2.314e-05	8517
bin	2.32112e-05	8605
bin	2.32824e-05	8384
bin	2.33536e-05	8433
bin	2.34248e-05	8513
bin	2.3496e-05	8515
bin	2.35672e-05	8429
bin	2.36384e-05	8442
bin	2.37096e-05	8367
bin	2.37808e-05	8447
bin	2.3852e-05	8377
bin	2.39232e-05	8527
bin	2.39944e-05	8523
bin	2.40656e-05	8520
bin	2.41368e-05	8466
bin	2.4208e-05	8506
bin	2.42792e-05	8403
bin	2.43504e-05	8461
bin	2.44216e-05	8612
bin	2.44928e-05	8325
bin	2.4564e-05	8364
bin	2.46352e-05	8436
bin	2.47064e-05	8344
bin	2.47776e-05	8532
bin	2.48488e-05	8442
bin	2.492e-05	8347
bin	2.49912e-05	8290
bin	2.50624e-05	8408
bin	2.51336e-05	8263
bin	2.52048e-05	8362
bin	2.5276e-05	8299
bin	2.53472e-05	8427
bin	2.54184e-05	8198
bin	2.54896e-05	8411
bin	2.55608e-05	8473
bin	2.5632e-05	8290
bin	2.57032e-05	8329
bin	2.57744e-05	8263
bin	2.58456e-05	8296
bin	2.59168e-05	8249
bin	2.5988e-05	8397
bin	2.60592e-05	7952
bin	2.61304e-05	8074
bin	2.62016e-05	8016
bin	2.62728e-05	8171
bin	2.6344e-05	8135
bin	2.64152e-05	8096
bin	2.64864e-05	8137
bin	2.65576e-05	8416
bin	2.66288e-05	8314
bin	2.67e-05	8143
bin	2.67712e-05	8222
bin	2.68424e-05	8019
bin	2.69136e-05	8282
bin	2.69848e-05	8103
bin	2.7056e-05	8181
bin	2.71272e-05	8129
bin	2.71984e-05	8086
bin	2.72696e-05	8006
bin	2.73408e-05	8083
bin	2.7412e-05	8036
bin	2.74832e-05	7862
bin	2.75544e-05	8109
bin	2.76256e-05	7950
bin	2.76968e-05	8039
bin	2.7768e-05	8017
bin	2.78392e-05	8293
bin	2.79104e-05	8039
bin	2.79816e-05	7965
bin	2.80528e-05	7975
bin	2.8124e-05	8117
bin	2.81952e-05	8072
bin	2.82664e-05	7962
bin	2.83376e-05	8200
bin	2.84088e-05	8087
bin	2.848e-05	8318
bin	2.85512e-05	8179
bin	2.86224e-05	8020
bin	2.86936e-05	8140
bin	2.87648e-05	8193
bin	2.8836e-05	8204
bin	2.89072e-05	8073
bin	2.89784e-05	8095
bin	2.90496e-05	8069
bin	2.91208e-05	8126
bin	2.9192e-05	8076
bin	2.92632e-05	7947
bin	2.93344e-05	7885
bin	2.94056e-05	7990
bin	2.94768e-05	7920
bin	2.9548e-05	7954
bin	2.96192e-05	7993
bin	2.96904e-05	7846
bin	2.97616e-05	8053
bin	2.98328e-05	7807
bin	2.9904e-05	7955
bin	2.99752e-05	7775
bin	3.00464e-05	7960
bin	3.01176e-05	7682
bin	3.01888e-05	7719
bin	3.026e-05	7703
bin	3.03312e-05	7635
bin	3.04024e-05	7749
bin	3.04736e-05	7733
bin	3.05448e-05	7682
bin	3.0616e-05	7398
bin	3.06872e-05	7736
bin	3.07584e-05	7425
bin	3.08296e-05	7583
bin	3.09008e-05	7396
bin	3.0972e-05	7578
bin	3.10432e-05	7472
bin	3.11144e-05	7489
bin	3.11856e-05	7629
bin	3.12568e-05	7452
bin	3.1328e-05	7727
bin	3.13992e-05	7433
bin	3.14704e-05	7532
bin	3.15416e-05	7237
bin	3.16128e-05	7405
bin	3.1684e-05	7374
bin	3.17552e-05	7573
bin	3.18264e-05	7275
bin	3.18976e-05	7144
bin	3.19688e-05	7232
bin	3.204e-05	7364
bin	3.21112e-05	7301
bin	3.21824e-05	7226
bin	3.22536e-05	7477
bin	3.23248e-05	7109
bin	3.2396e-05	7194
bin	3.24672e-05	7061
bin	3.25384e-05	7060
bin	3.26096e-05	7101
bin	3.26808e-05	7143
bin	3.2752e-05	7025
bin	3.28232e-05	7027
bin	3.28944e-05	7253
bin	3.29656e-05	7010
bin	3.30368e-05	7156
bin	3.3108e-05	6914
bin	3.31792e-05	6932
bin	3.32504e-05	6751
bin	3.33216e-05	6872
bin	3.33928e-05	6927
bin	3.3464e-05	6755
bin	3.35352e-05	6928
bin	3.36064e-05	6811
bin	3.36776e-05	6847
bin	3.37488e-05	6655
bin	3.382e-05	7031
bin	3.38912e-05	6545
bin	3.39624e-05	6721
bin	3.40336e-05	6642
bin	3.41048e-05	6744
bin	3.4176e-05	6646
bin	3.42472e-05	6536
bin	3.43184e-05	6567
bin	3.43896e-05	6461
bin	3.44608e-05	6361
bin	3.4532e-05	6493
bin	3.46032e-05	6743
bin	3.46744e-05	6346
bin	3.47456e-05	6476
bin	3.48168e-05	6327
bin	3.4888e-05	6403
bin	3.49592e-05	6226
bin	3.50304e-05	6275
bin	3.51016e-05	6284
bin	3.51728e-05	6200
bin	3.5244e-05	6292
bin	3.53152e-05	6120
bin	3.53864e-05	6238
bin	3.54576e-05	6086
bin	3.55288e-05	6036
bin	3.56e-05	2539166
statistic Torus3d_bub.timer 	"Life Times"
field count 6291456
field mean 0.00017506673829639
field stddev 0.0001015834760265
field sum 1101.4246810553
field sqrsum 0.25774562519551
field min 5.2e-07
field max 0.000672185181113
bin	-INF	0
bin	0	8217
bin	8.544e-07	12426
bin	1.7088e-06	18753
bin	2.5632e-06	27149
bin	3.4176e-06	26392
bin	4.272e-06	20542
bin	5.1264e-06	20848
bin	5.9808e-06	28649
bin	6.8352e-06	20025
bin	7.6896e-06	24254
bin	8.544e-06	22621
bin	9.3984e-06	25213
bin	1.02528e-05	25929
bin	1.11072e-05	29987
bin	1.19616e-05	30685
bin	1.2816e-05	14427
bin	1.36704e-05	15029
bin	1.45248e-05	14326
bin	1.53792e-05	12696
bin	1.62336e-05	10589
bin	1.7088e-05	10337
bin	1.79424e-05	11129
bin	1.87968e-05	10687
bin	1.96512e-05	10793
bin	2.05056e-05	10495
bin	2.136e-05	9690
bin	2.22144e-05	10014
bin	2.30688e-05	10027
bin	2.39232e-05	10224
bin	2.47776e-05	10261
bin	2.5632e-05	10223
bin	2.64864e-05	10011
bin	2.73408e-05	10133
bin	2.81952e-05	10581
bin	2.90496e-05	10631
bin	2.9904e-05	10566
bin	3.07584e-05	10206
bin	3.16128e-05	10645
bin	3.24672e-05	10660
bin	3.33216e-05	10488
bin	3.4176e-05	10746
bin	3.50304e-05	11099
bin	3.58848e-05	10892
bin	3.67392e-05	10875
bin	3.75936e-05	11192
bin	3.8448e-05	11252
bin	3.93024e-05	11006
bin	4.01568e-05	10944
bin	4.10112e-05	11408
bin	4.18656e-05	11277
bin	4.272e-05	11032
bin	4.35744e-05	11089
bin	4.44288e-05	11310
bin	4.52832e-05	11147
bin	4.61376e-05	11455
bin	4.6992e-05	11801
bin	4.78464e-05	12098
bin	4.87008e-05	11872
bin	4.95552e-05	12012
bin	5.04096e-05	12612
bin	5.1264e-05	12822
bin	5.21184e-05	12855
bin	5.29728e-05	13118
bin	5.38272e-05	13395
bin	5.46816e-05	13454
bin	5.5536e-05	13525
bin	5.63904e-05	14019
bin	5.72448e-05	14673
bin	5.80992e-05	14212
bin	5.89536e-05	14252
bin	5.9808e-05	14797
bin	6.06624e-05	14851
bin	6.15168e-05	14327
bin	6.23712e-05	14323
bin	6.32256e-05	14520
bin	6.408e-05	14352
bin	6.49344e-05	13963
bin	6.57888e-05	13792
bin	6.66432e-05	14044
bin	6.74976e-05	13873
bin	6.8352e-05	13564
bin	6.92064e-05	13831
bin	7.00608e-05	13934
bin	7.09152e-05	13612
bin	7.17696e-05	13467
bin	7.2624e-05	13836
bin	7.34784e-05	13892
bin	7.43328e-05	13600
bin	7.51872e-05	13842
bin	7.60416e-05	13986
bin	7.6896e-05	13841
bin	7.77504e-05	13793
bin	7.86048e-05	14006
bin	7.94592e-05	14369
bin	8.03136e-05	14211
bin	8.1168e-05	14475
bin	8.20224e-05	14859
bin	8.28768e-05	14656
bin	8.37312e-05	14779
bin	8.45856e-05	14661
bin	8.544e-05	14754
bin	8.62944e-05	14743
bin	8.71488e-05	14958
bin	8.80032e-05	14835
bin	8.88576e-05	14913
bin	8.9712e-05	15127
bin	9.05664e-05	15194
bin	9.14208e-05	15178
bin	9.22752e-05	15192
bin	9.31296e-05	15503
bin	9.3984e-05	15296
bin	9.48384e-05	15301
bin	9.56928e-05	15304
bin	9.65472e-05	15456
bin	9.74016e-05	15591
bin	9.8256e-05	15577
bin	9.91104e-05	15689
bin	9.99648e-05	15655
bin	0.0001008192	15736
bin	0.0001016736	15670
bin	0.000102528	15600
bin	0.0001033824	15494
bin	0.0001042368	15785
bin	0.0001050912	15878
bin	0.0001059456	16054
bin	0.0001068	15958
bin	0.0001076544	16067
bin	0.0001085088	15980
bin	0.0001093632	15708
bin	0.0001102176	15851
bin	0.000111072	15920
bin	0.0001119264	16089
bin	0.0001127808	16187
bin	0.0001136352	16656
bin	0.0001144896	16318
bin	0.000115344	16431
bin	0.0001161984	16508
bin	0.0001170528	16695
bin	0.0001179072	16816
bin	0.0001187616	16688
bin	0.000119616	16787
bin	0.0001204704	16869
bin	0.0001213248	17045
bin	0.0001221792	17084
bin	0.0001230336	17201
bin	0.000123888	17258
bin	0.0001247424	17315
bin	0.0001255968	16866
bin	0.0001264512	17145
bin	0.0001273056	17364
bin	0.00012816	17374
bin	0.0001290144	17589
bin	0.0001298688	17677
bin	0.0001307232	17632
bin	0.0001315776	17617
bin	0.000132432	17634
bin	0.0001332864	17509
bin	0.0001341408	17584
bin	0.0001349952	17578
bin	0.0001358496	17678
bin	0.000136704	17905
bin	0.0001375584	17893
bin	0.0001384128	17950
bin	0.0001392672	18163
bin	0.0001401216	18141
bin	0.000140976	18157
bin	0.0001418304	18088
bin	0.0001426848	18126
bin	0.0001435392	18168
bin	0.0001443936	18314
bin	0.000145248	18343
bin	0.0001461024	18226
bin	0.0001469568	18159
bin	0.0001478112	17993
bin	0.0001486656	18172
bin	0.00014952	17830
bin	0.0001503744	18080
bin	0.0001512288	18188
bin	0.0001520832	18310
bin	0.0001529376	18239
bin	0.000153792	18171
bin	0.0001546464	18378
bin	0.0001555008	18337
bin	0.0001563552	18078
bin	0.0001572096	18298
bin	0.000158064	18374
bin	0.0001589184	18405
bin	0.0001597728	18444
bin	0.0001606272	18274
bin	0.0001614816	18541
bin	0.000162336	18439
bin	0.0001631904	18538
bin	0.0001640448	18628
bin	0.0001648992	18335
bin	0.0001657536	18434
bin	0.000166608	18669
bin	0.0001674624	18562
bin	0.0001683168	18819
bin	0.0001691712	18673
bin	0.0001700256	18763
bin	0.00017088	18416
bin	0.0001717344	18723
bin	0.0001725888	18494
bin	0.0001734432	18527
bin	0.0001742976	18525
bin	0.000175152	18669
bin	0.0001760064	18594
bin	0.0001768608	18603
bin	0.0001777152	18429
bin	0.0001785696	18641
bin	0.000179424	18671
bin	0.0001802784	18528
bin	0.0001811328	18485
bin	0.0001819872	18373
bin	0.0001828416	18292
bin	0.000183696	18265
bin	0.0001845504	18193
bin	0.0001854048	18058
bin	0.0001862592	18397
bin	0.0001871136	18390
bin	0.000187968	18087
bin	0.0001888224	18197
bin	0.0001896768	18265
bin	0.0001905312	18066
bin	0.0001913856	17957
bin	0.00019224	17984
bin	0.0001930944	18185
bin	0.0001939488	18273
bin	0.0001948032	18077
bin	0.0001956576	17956
bin	0.000196512	17967
bin	0.0001973664	18057
bin	0.0001982208	18038
bin	0.0001990752	17849
bin	0.0001999296	17823
bin	0.000200784	17852
bin	0.0002016384	17785
bin	0.0002024928	17955
bin	0.0002033472	17673
bin	0.0002042016	17956
bin	0.000205056	17577
bin	0.0002059104	17616
bin	0.0002067648	17612
bin	0.0002076192	17468
bin	0.0002084736	17426
bin	0.000209328	17453
bin	0.0002101824	17059
bin	0.0002110368	17058
bin	0.0002118912	17062
bin	0.0002127456	17131
bin	0.0002136	17021
bin	0.0002144544	17286
bin	0.0002153088	17203
bin	0.0002161632	17078
bin	0.0002170176	17024
bin	0.000217872	16981
bin	0.0002187264	16815
bin	0.0002195808	16883
bin	0.0002204352	16975
bin	0.0002212896	16919
bin	0.000222144	16757
bin	0.0002229984	16802
bin	0.0002238528	16714
bin	0.0002247072	16770
bin	0.0002255616	16832
bin	0.000226416	16486
bin	0.0002272704	16836
bin	0.0002281248	16563
bin	0.0002289792	16521
bin	0.0002298336	16430
bin	0.000230688	16422
bin	0.0002315424	16300
bin	0.0002323968	16196
bin	0.0002332512	16189
bin	0.0002341056	16163
bin	0.00023496	16075
bin	0.0002358144	16172
bin	0.0002366688	16085
bin	0.0002375232	16106
bin	0.0002383776	15792
bin	0.000239232	15959
bin	0.0002400864	15834
bin	0.0002409408	15541
bin	0.0002417952	15569
bin	0.0002426496	15777
bin	0.000243504	15832
bin	0.0002443584	15634
bin	0.0002452128	15500
bin	0.0002460672	15538
bin	0.0002469216	15431
bin	0.000247776	15438
bin	0.0002486304	15149
bin	0.0002494848	15163
bin	0.0002503392	15335
bin	0.0002511936	15429
bin	0.000252048	15205
bin	0.0002529024	15164
bin	0.0002537568	15046
bin	0.0002546112	15066
bin	0.0002554656	14930
bin	0.00025632	14847
bin	0.0002571744	14817
bin	0.0002580288	14666
bin	0.0002588832	14544
bin	0.0002597376	14643
bin	0.000260592	14569
bin	0.0002614464	14574
bin	0.0002623008	14361
bin	0.0002631552	14361
bin	0.0002640096	14483
bin	0.000264864	14396
bin	0.0002657184	14325
bin	0.0002665728	14029
bin	0.0002674272	14230
bin	0.0002682816	14055
bin	0.000269136	14170
bin	0.0002699904	14045
bin	0.0002708448	13918
bin	0.0002716992	13961
bin	0.0002725536	13666
bin	0.000273408	13764
bin	0.0002742624	13502
bin	0.0002751168	13401
bin	0.0002759712	13411
bin	0.0002768256	13599
bin	0.00027768	13524
bin	0.0002785344	13399
bin	0.0002793888	13379
bin	0.0002802432	13060
bin	0.0002810976	12988
bin	0.000281952	13098
bin	0.0002828064	12816
bin	0.0002836608	12767
bin	0.0002845152	12634
bin	0.0002853696	12628
bin	0.000286224	12397
bin	0.0002870784	12196
bin	0.0002879328	12321
bin	0.0002887872	12234
bin	0.0002896416	12145
bin	0.000290496	12087
bin	0.0002913504	11987
bin	0.0002922048	12011
bin	0.0002930592	11909
bin	0.0002939136	11994
bin	0.000294768	11858
bin	0.0002956224	11737
bin	0.0002964768	11440
bin	0.0002973312	11415
bin	0.0002981856	11275
bin	0.00029904	11259
bin	0.0002998944	11193
bin	0.0003007488	11123
bin	0.0003016032	11020
bin	0.0003024576	11003
bin	0.000303312	10699
bin	0.0003041664	10698
bin	0.0003050208	10705
bin	0.0003058752	10543
bin	0.0003067296	10540
bin	0.000307584	10442
bin	0.0003084384	10430
bin	0.0003092928	10384
bin	0.0003101472	10431
bin	0.0003110016	10258
bin	0.000311856	10143
bin	0.0003127104	10016
bin	0.0003135648	9911
bin	0.0003144192	9849
bin	0.0003152736	9871
bin	0.000316128	9849
bin	0.0003169824	9718
bin	0.0003178368	9638
bin	0.0003186912	9474
bin	0.0003195456	9668
bin	0.0003204	9567
bin	0.0003212544	9532
bin	0.0003221088	9259
bin	0.0003229632	9150
bin	0.0003238176	8936
bin	0.000324672	8888
bin	0.0003255264	8948
bin	0.0003263808	8821
bin	0.0003272352	8591
bin	0.0003280896	8760
bin	0.000328944	8543
bin	0.0003297984	8401
bin	0.0003306528	8369
bin	0.0003315072	8230
bin	0.0003323616	8151
bin	0.000333216	8119
bin	0.0003340704	8153
bin	0.0003349248	8038
bin	0.0003357792	7856
bin	0.0003366336	7656
bin	0.000337488	7540
bin	0.0003383424	7361
bin	0.0003391968	7329
bin	0.0003400512	7246
bin	0.0003409056	7002
bin	0.00034176	6892
bin	0.0003426144	6841
bin	0.0003434688	6531
bin	0.0003443232	6546
bin	0.0003451776	6391
bin	0.000346032	6265
bin	0.0003468864	6247
bin	0.0003477408	6103
bin	0.0003485952	5980
bin	0.0003494496	5860
bin	0.000350304	5758
bin	0.0003511584	5761
bin	0.0003520128	5647
bin	0.0003528672	5517
bin	0.0003537216	5431
bin	0.000354576	5433
bin	0.0003554304	5354
bin	0.0003562848	5320
bin	0.0003571392	5395
bin	0.0003579936	5234
bin	0.000358848	5076
bin	0.0003597024	5138
bin	0.0003605568	5047
bin	0.0003614112	5139
bin	0.0003622656	5059
bin	0.00036312	4954
bin	0.0003639744	4937
bin	0.0003648288	4782
bin	0.0003656832	4741
bin	0.0003665376	4620
bin	0.000367392	4415
bin	0.0003682464	4324
bin	0.0003691008	4294
bin	0.0003699552	4202
bin	0.0003708096	3992
bin	0.000371664	3835
bin	0.0003725184	3755
bin	0.0003733728	3711
bin	0.0003742272	3525
bin	0.0003750816	3548
bin	0.000375936	3393
bin	0.0003767904	3336
bin	0.0003776448	3249
bin	0.0003784992	3241
bin	0.0003793536	3213
bin	0.000380208	3096
bin	0.0003810624	2987
bin	0.0003819168	2983
bin	0.0003827712	2911
bin	0.0003836256	2863
bin	0.00038448	2809
bin	0.0003853344	2618
bin	0.0003861888	2546
bin	0.0003870432	2461
bin	0.0003878976	2333
bin	0.000388752	2312
bin	0.0003896064	2243
bin	0.0003904608	2189
bin	0.0003913152	2126
bin	0.0003921696	2129
bin	0.000393024	2046
bin	0.0003938784	1980
bin	0.0003947328	1992
bin	0.0003955872	1939
bin	0.0003964416	1947
bin	0.000397296	1868
bin	0.0003981504	1892
bin	0.0003990048	1881
bin	0.0003998592	1846
bin	0.0004007136	1840
bin	0.000401568	1755
bin	0.0004024224	1719
bin	0.0004032768	1729
bin	0.0004041312	1711
bin	0.0004049856	1628
bin	0.00040584	1636
bin	0.0004066944	1623
bin	0.0004075488	1497
bin	0.0004084032	1434
bin	0.0004092576	1282
bin	0.000410112	1268
bin	0.0004109664	1180
bin	0.0004118208	1069
bin	0.0004126752	1029
bin	0.0004135296	969
bin	0.000414384	955
bin	0.0004152384	967
bin	0.0004160928	918
bin	0.0004169472	855
bin	0.0004178016	893
bin	0.000418656	890
bin	0.0004195104	888
bin	0.0004203648	836
bin	0.0004212192	795
bin	0.0004220736	812
bin	0.000422928	815
bin	0.0004237824	777
bin	0.0004246368	736
bin	0.0004254912	715
bin	0.0004263456	735
bin	0.0004272	24027
