version 2
run Butterfly-65-20120709-11:47:28-22815
attr alg 1
attr buf 8
attr configname Butterfly
attr datetime 20120709-11:47:28
attr delta 1
attr experiment Butterfly
attr ext true
attr inifile altro.ini
attr iterationvars "$buf=8, $ext=true, $ofedge=2, $delta=1, $alg=1"
attr iterationvars2 "$buf=8, $ext=true, $ofedge=2, $delta=1, $alg=1, $repetition=0"
attr measurement "$buf=8, $ext=true, $ofedge=2, $delta=1, $alg=1"
attr network Torus3d_bub
attr ofedge 2
attr processid 22815
attr repetition 0
attr replication #0
attr resultdir altro-results
attr runnumber 65
attr seedset 65

scalar . 	alg 	1
scalar . 	buf 	8
scalar . 	delta 	1
scalar . 	ofedge 	2
scalar Torus3d_bub.timer 	#endTime 	0.001095813664994
scalar Torus3d_bub.timer 	#totalHops 	47755121
scalar Torus3d_bub.timer 	#totalPacks 	6291456
scalar Torus3d_bub.timer 	#totalDerouted 	4124695
scalar Torus3d_bub.timer 	#totalOutFlanked 	4124695
scalar Torus3d_bub.timer 	#totalCQRed 	0
scalar Torus3d_bub.timer 	#LB 	0.000786432
scalar Torus3d_bub.timer 	#ratio 	0.71766945888953
statistic Torus3d_bub.timer 	"Hop Times"
field count 6291456
field mean 2.0305140498747e-05
field stddev 3.3749583019101e-05
field sum 127.74889802168
field sqrsum 0.009760142704304
field min 3.98466643e-07
field max 0.000631425665973
bin	-INF	0
bin	0	0
bin	7.12e-08	0
bin	1.424e-07	0
bin	2.136e-07	0
bin	2.848e-07	0
bin	3.56e-07	5
bin	4.272e-07	2255
bin	4.984e-07	5144
bin	5.696e-07	3404
bin	6.408e-07	6941
bin	7.12e-07	11465
bin	7.832e-07	5522
bin	8.544e-07	11385
bin	9.256e-07	14044
bin	9.968e-07	5565
bin	1.068e-06	15634
bin	1.1392e-06	10372
bin	1.2104e-06	20517
bin	1.2816e-06	11972
bin	1.3528e-06	21682
bin	1.424e-06	16729
bin	1.4952e-06	24015
bin	1.5664e-06	19405
bin	1.6376e-06	30608
bin	1.7088e-06	27048
bin	1.78e-06	29609
bin	1.8512e-06	31710
bin	1.9224e-06	28090
bin	1.9936e-06	39183
bin	2.0648e-06	35445
bin	2.136e-06	34058
bin	2.2072e-06	26162
bin	2.2784e-06	38441
bin	2.3496e-06	30899
bin	2.4208e-06	32696
bin	2.492e-06	38159
bin	2.5632e-06	39773
bin	2.6344e-06	34392
bin	2.7056e-06	33425
bin	2.7768e-06	34835
bin	2.848e-06	31943
bin	2.9192e-06	33342
bin	2.9904e-06	27961
bin	3.0616e-06	33757
bin	3.1328e-06	27907
bin	3.204e-06	27623
bin	3.2752e-06	32870
bin	3.3464e-06	24371
bin	3.4176e-06	28438
bin	3.4888e-06	23750
bin	3.56e-06	29622
bin	3.6312e-06	28052
bin	3.7024e-06	25700
bin	3.7736e-06	25981
bin	3.8448e-06	34078
bin	3.916e-06	24032
bin	3.9872e-06	23922
bin	4.0584e-06	27637
bin	4.1296e-06	23290
bin	4.2008e-06	25344
bin	4.272e-06	22658
bin	4.3432e-06	26483
bin	4.4144e-06	22557
bin	4.4856e-06	22339
bin	4.5568e-06	22222
bin	4.628e-06	25882
bin	4.6992e-06	21964
bin	4.7704e-06	23809
bin	4.8416e-06	25535
bin	4.9128e-06	21051
bin	4.984e-06	21242
bin	5.0552e-06	21003
bin	5.1264e-06	24936
bin	5.1976e-06	20909
bin	5.2688e-06	20795
bin	5.34e-06	20529
bin	5.4112e-06	24792
bin	5.4824e-06	20683
bin	5.5536e-06	20831
bin	5.6248e-06	25061
bin	5.696e-06	20423
bin	5.7672e-06	20712
bin	5.8384e-06	20420
bin	5.9096e-06	26491
bin	5.9808e-06	20570
bin	6.052e-06	20637
bin	6.1232e-06	20467
bin	6.1944e-06	24406
bin	6.2656e-06	20421
bin	6.3368e-06	20508
bin	6.408e-06	24390
bin	6.4792e-06	20086
bin	6.5504e-06	21193
bin	6.6216e-06	19895
bin	6.6928e-06	23676
bin	6.764e-06	19777
bin	6.8352e-06	19696
bin	6.9064e-06	19215
bin	6.9776e-06	22953
bin	7.0488e-06	18669
bin	7.12e-06	18372
bin	7.1912e-06	22480
bin	7.2624e-06	17795
bin	7.3336e-06	18156
bin	7.4048e-06	18180
bin	7.476e-06	21752
bin	7.5472e-06	17864
bin	7.6184e-06	17785
bin	7.6896e-06	17796
bin	7.7608e-06	21847
bin	7.832e-06	17889
bin	7.9032e-06	17862
bin	7.9744e-06	21734
bin	8.0456e-06	17440
bin	8.1168e-06	17672
bin	8.188e-06	17433
bin	8.2592e-06	19696
bin	8.3304e-06	17607
bin	8.4016e-06	17319
bin	8.4728e-06	17340
bin	8.544e-06	21008
bin	8.6152e-06	17007
bin	8.6864e-06	16997
bin	8.7576e-06	21106
bin	8.8288e-06	16730
bin	8.9e-06	16812
bin	8.9712e-06	16611
bin	9.0424e-06	20451
bin	9.1136e-06	16246
bin	9.1848e-06	18253
bin	9.256e-06	16009
bin	9.3272e-06	17813
bin	9.3984e-06	15848
bin	9.4696e-06	16110
bin	9.5408e-06	19756
bin	9.612e-06	15512
bin	9.6832e-06	17816
bin	9.7544e-06	15545
bin	9.8256e-06	21631
bin	9.8968e-06	15615
bin	9.968e-06	15417
bin	1.00392e-05	15423
bin	1.01104e-05	17124
bin	1.01816e-05	15258
bin	1.02528e-05	17319
bin	1.0324e-05	21411
bin	1.03952e-05	15236
bin	1.04664e-05	17491
bin	1.05376e-05	14907
bin	1.06088e-05	17017
bin	1.068e-05	15072
bin	1.07512e-05	14782
bin	1.08224e-05	14794
bin	1.08936e-05	16637
bin	1.09648e-05	14683
bin	1.1036e-05	14602
bin	1.11072e-05	16914
bin	1.11784e-05	14518
bin	1.12496e-05	14902
bin	1.13208e-05	14331
bin	1.1392e-05	18570
bin	1.14632e-05	16459
bin	1.15344e-05	14544
bin	1.16056e-05	14431
bin	1.16768e-05	18429
bin	1.1748e-05	14354
bin	1.18192e-05	16359
bin	1.18904e-05	18290
bin	1.19616e-05	13941
bin	1.20328e-05	16207
bin	1.2104e-05	15990
bin	1.21752e-05	17999
bin	1.22464e-05	14102
bin	1.23176e-05	14212
bin	1.23888e-05	15914
bin	1.246e-05	19980
bin	1.25312e-05	13878
bin	1.26024e-05	14744
bin	1.26736e-05	15670
bin	1.27448e-05	15594
bin	1.2816e-05	13258
bin	1.28872e-05	13340
bin	1.29584e-05	13237
bin	1.30296e-05	14302
bin	1.31008e-05	13040
bin	1.3172e-05	12763
bin	1.32432e-05	12877
bin	1.33144e-05	12824
bin	1.33856e-05	12696
bin	1.34568e-05	12577
bin	1.3528e-05	12392
bin	1.35992e-05	12524
bin	1.36704e-05	12454
bin	1.37416e-05	12454
bin	1.38128e-05	12472
bin	1.3884e-05	12214
bin	1.39552e-05	12297
bin	1.40264e-05	12067
bin	1.40976e-05	12415
bin	1.41688e-05	12084
bin	1.424e-05	12007
bin	1.43112e-05	12047
bin	1.43824e-05	11791
bin	1.44536e-05	11775
bin	1.45248e-05	11809
bin	1.4596e-05	11625
bin	1.46672e-05	11584
bin	1.47384e-05	11497
bin	1.48096e-05	11695
bin	1.48808e-05	11652
bin	1.4952e-05	11467
bin	1.50232e-05	11394
bin	1.50944e-05	11384
bin	1.51656e-05	11269
bin	1.52368e-05	11278
bin	1.5308e-05	11214
bin	1.53792e-05	10823
bin	1.54504e-05	11001
bin	1.55216e-05	10972
bin	1.55928e-05	10828
bin	1.5664e-05	10615
bin	1.57352e-05	10729
bin	1.58064e-05	10581
bin	1.58776e-05	10622
bin	1.59488e-05	10639
bin	1.602e-05	10489
bin	1.60912e-05	10541
bin	1.61624e-05	10395
bin	1.62336e-05	10454
bin	1.63048e-05	10376
bin	1.6376e-05	10309
bin	1.64472e-05	9982
bin	1.65184e-05	9965
bin	1.65896e-05	10085
bin	1.66608e-05	9853
bin	1.6732e-05	9967
bin	1.68032e-05	9790
bin	1.68744e-05	9708
bin	1.69456e-05	9532
bin	1.70168e-05	9528
bin	1.7088e-05	9549
bin	1.71592e-05	9553
bin	1.72304e-05	9542
bin	1.73016e-05	9228
bin	1.73728e-05	9260
bin	1.7444e-05	9123
bin	1.75152e-05	9329
bin	1.75864e-05	9028
bin	1.76576e-05	9022
bin	1.77288e-05	8996
bin	1.78e-05	9059
bin	1.78712e-05	8859
bin	1.79424e-05	8854
bin	1.80136e-05	8744
bin	1.80848e-05	8750
bin	1.8156e-05	8713
bin	1.82272e-05	8399
bin	1.82984e-05	8690
bin	1.83696e-05	8519
bin	1.84408e-05	8432
bin	1.8512e-05	8399
bin	1.85832e-05	8469
bin	1.86544e-05	8252
bin	1.87256e-05	8284
bin	1.87968e-05	8086
bin	1.8868e-05	8043
bin	1.89392e-05	8313
bin	1.90104e-05	8083
bin	1.90816e-05	8235
bin	1.91528e-05	8000
bin	1.9224e-05	7854
bin	1.92952e-05	7833
bin	1.93664e-05	8052
bin	1.94376e-05	7891
bin	1.95088e-05	7847
bin	1.958e-05	7886
bin	1.96512e-05	7789
bin	1.97224e-05	7722
bin	1.97936e-05	7606
bin	1.98648e-05	7544
bin	1.9936e-05	7586
bin	2.00072e-05	7763
bin	2.00784e-05	7603
bin	2.01496e-05	7553
bin	2.02208e-05	7687
bin	2.0292e-05	7386
bin	2.03632e-05	7414
bin	2.04344e-05	7357
bin	2.05056e-05	7413
bin	2.05768e-05	7395
bin	2.0648e-05	7367
bin	2.07192e-05	7273
bin	2.07904e-05	7231
bin	2.08616e-05	7304
bin	2.09328e-05	7220
bin	2.1004e-05	7101
bin	2.10752e-05	7092
bin	2.11464e-05	7157
bin	2.12176e-05	7138
bin	2.12888e-05	7151
bin	2.136e-05	7004
bin	2.14312e-05	7074
bin	2.15024e-05	6974
bin	2.15736e-05	6754
bin	2.16448e-05	6671
bin	2.1716e-05	6698
bin	2.17872e-05	6901
bin	2.18584e-05	6615
bin	2.19296e-05	6610
bin	2.20008e-05	6616
bin	2.2072e-05	6670
bin	2.21432e-05	6612
bin	2.22144e-05	6645
bin	2.22856e-05	6490
bin	2.23568e-05	6700
bin	2.2428e-05	6531
bin	2.24992e-05	6375
bin	2.25704e-05	6295
bin	2.26416e-05	6277
bin	2.27128e-05	6299
bin	2.2784e-05	6183
bin	2.28552e-05	6231
bin	2.29264e-05	6058
bin	2.29976e-05	6184
bin	2.30688e-05	6123
bin	2.314e-05	6049
bin	2.32112e-05	5943
bin	2.32824e-05	5904
bin	2.33536e-05	5902
bin	2.34248e-05	5781
bin	2.3496e-05	5876
bin	2.35672e-05	5778
bin	2.36384e-05	5723
bin	2.37096e-05	5669
bin	2.37808e-05	5753
bin	2.3852e-05	5716
bin	2.39232e-05	5610
bin	2.39944e-05	5625
bin	2.40656e-05	5514
bin	2.41368e-05	5527
bin	2.4208e-05	5486
bin	2.42792e-05	5480
bin	2.43504e-05	5405
bin	2.44216e-05	5500
bin	2.44928e-05	5523
bin	2.4564e-05	5377
bin	2.46352e-05	5386
bin	2.47064e-05	5316
bin	2.47776e-05	5265
bin	2.48488e-05	5174
bin	2.492e-05	5194
bin	2.49912e-05	5072
bin	2.50624e-05	5127
bin	2.51336e-05	5015
bin	2.52048e-05	4986
bin	2.5276e-05	4894
bin	2.53472e-05	5058
bin	2.54184e-05	4770
bin	2.54896e-05	4765
bin	2.55608e-05	4693
bin	2.5632e-05	4703
bin	2.57032e-05	4755
bin	2.57744e-05	4625
bin	2.58456e-05	4474
bin	2.59168e-05	4404
bin	2.5988e-05	4457
bin	2.60592e-05	4276
bin	2.61304e-05	4430
bin	2.62016e-05	4294
bin	2.62728e-05	4318
bin	2.6344e-05	4171
bin	2.64152e-05	4306
bin	2.64864e-05	4241
bin	2.65576e-05	4085
bin	2.66288e-05	4184
bin	2.67e-05	4204
bin	2.67712e-05	4145
bin	2.68424e-05	4030
bin	2.69136e-05	4157
bin	2.69848e-05	3950
bin	2.7056e-05	3941
bin	2.71272e-05	4005
bin	2.71984e-05	3851
bin	2.72696e-05	3893
bin	2.73408e-05	3881
bin	2.7412e-05	3962
bin	2.74832e-05	3923
bin	2.75544e-05	3856
bin	2.76256e-05	3755
bin	2.76968e-05	3799
bin	2.7768e-05	3793
bin	2.78392e-05	3690
bin	2.79104e-05	3628
bin	2.79816e-05	3652
bin	2.80528e-05	3813
bin	2.8124e-05	3617
bin	2.81952e-05	3618
bin	2.82664e-05	3574
bin	2.83376e-05	3577
bin	2.84088e-05	3510
bin	2.848e-05	3562
bin	2.85512e-05	3564
bin	2.86224e-05	3432
bin	2.86936e-05	3336
bin	2.87648e-05	3437
bin	2.8836e-05	3478
bin	2.89072e-05	3358
bin	2.89784e-05	3313
bin	2.90496e-05	3334
bin	2.91208e-05	3412
bin	2.9192e-05	3270
bin	2.92632e-05	3390
bin	2.93344e-05	3255
bin	2.94056e-05	3292
bin	2.94768e-05	3155
bin	2.9548e-05	3277
bin	2.96192e-05	3283
bin	2.96904e-05	3176
bin	2.97616e-05	3122
bin	2.98328e-05	3199
bin	2.9904e-05	3147
bin	2.99752e-05	3076
bin	3.00464e-05	3142
bin	3.01176e-05	2933
bin	3.01888e-05	3033
bin	3.026e-05	2985
bin	3.03312e-05	3080
bin	3.04024e-05	3090
bin	3.04736e-05	2948
bin	3.05448e-05	3052
bin	3.0616e-05	2962
bin	3.06872e-05	2963
bin	3.07584e-05	2927
bin	3.08296e-05	3005
bin	3.09008e-05	2900
bin	3.0972e-05	2845
bin	3.10432e-05	2813
bin	3.11144e-05	2797
bin	3.11856e-05	2768
bin	3.12568e-05	2737
bin	3.1328e-05	2694
bin	3.13992e-05	2758
bin	3.14704e-05	2716
bin	3.15416e-05	2657
bin	3.16128e-05	2703
bin	3.1684e-05	2677
bin	3.17552e-05	2668
bin	3.18264e-05	2637
bin	3.18976e-05	2703
bin	3.19688e-05	2671
bin	3.204e-05	2643
bin	3.21112e-05	2585
bin	3.21824e-05	2616
bin	3.22536e-05	2611
bin	3.23248e-05	2521
bin	3.2396e-05	2611
bin	3.24672e-05	2498
bin	3.25384e-05	2532
bin	3.26096e-05	2522
bin	3.26808e-05	2674
bin	3.2752e-05	2505
bin	3.28232e-05	2461
bin	3.28944e-05	2462
bin	3.29656e-05	2566
bin	3.30368e-05	2435
bin	3.3108e-05	2406
bin	3.31792e-05	2540
bin	3.32504e-05	2457
bin	3.33216e-05	2488
bin	3.33928e-05	2433
bin	3.3464e-05	2437
bin	3.35352e-05	2478
bin	3.36064e-05	2451
bin	3.36776e-05	2426
bin	3.37488e-05	2415
bin	3.382e-05	2426
bin	3.38912e-05	2261
bin	3.39624e-05	2394
bin	3.40336e-05	2337
bin	3.41048e-05	2388
bin	3.4176e-05	2301
bin	3.42472e-05	2350
bin	3.43184e-05	2220
bin	3.43896e-05	2220
bin	3.44608e-05	2381
bin	3.4532e-05	2245
bin	3.46032e-05	2185
bin	3.46744e-05	2218
bin	3.47456e-05	2178
bin	3.48168e-05	2224
bin	3.4888e-05	2167
bin	3.49592e-05	2145
bin	3.50304e-05	2274
bin	3.51016e-05	2216
bin	3.51728e-05	2095
bin	3.5244e-05	2232
bin	3.53152e-05	2093
bin	3.53864e-05	2109
bin	3.54576e-05	2124
bin	3.55288e-05	2077
bin	3.56e-05	756016
statistic Torus3d_bub.timer 	"Life Times"
field count 6291456
field mean 0.00010233064803692
field stddev 8.572422919998e-05
field sum 643.80876957575
field sqrsum 0.11211502831723
field min 5.62665745e-07
field max 0.000849212666551
bin	-INF	0
bin	0	6396
bin	8.544e-07	27309
bin	1.7088e-06	42969
bin	2.5632e-06	36818
bin	3.4176e-06	38587
bin	4.272e-06	42953
bin	5.1264e-06	47342
bin	5.9808e-06	41573
bin	6.8352e-06	39643
bin	7.6896e-06	44159
bin	8.544e-06	48766
bin	9.3984e-06	46095
bin	1.02528e-05	52891
bin	1.11072e-05	56136
bin	1.19616e-05	58018
bin	1.2816e-05	39990
bin	1.36704e-05	40715
bin	1.45248e-05	37610
bin	1.53792e-05	44529
bin	1.62336e-05	45588
bin	1.7088e-05	44920
bin	1.79424e-05	44404
bin	1.87968e-05	44848
bin	1.96512e-05	47272
bin	2.05056e-05	52331
bin	2.136e-05	50870
bin	2.22144e-05	49149
bin	2.30688e-05	49748
bin	2.39232e-05	47343
bin	2.47776e-05	51450
bin	2.5632e-05	43735
bin	2.64864e-05	41261
bin	2.73408e-05	39362
bin	2.81952e-05	37521
bin	2.90496e-05	36184
bin	2.9904e-05	35291
bin	3.07584e-05	34612
bin	3.16128e-05	34213
bin	3.24672e-05	32685
bin	3.33216e-05	31716
bin	3.4176e-05	30504
bin	3.50304e-05	29761
bin	3.58848e-05	28846
bin	3.67392e-05	28015
bin	3.75936e-05	27973
bin	3.8448e-05	27239
bin	3.93024e-05	27177
bin	4.01568e-05	26684
bin	4.10112e-05	26939
bin	4.18656e-05	26808
bin	4.272e-05	26871
bin	4.35744e-05	26987
bin	4.44288e-05	27523
bin	4.52832e-05	27388
bin	4.61376e-05	27709
bin	4.6992e-05	28077
bin	4.78464e-05	27823
bin	4.87008e-05	28243
bin	4.95552e-05	28153
bin	5.04096e-05	28316
bin	5.1264e-05	28049
bin	5.21184e-05	27801
bin	5.29728e-05	27526
bin	5.38272e-05	27236
bin	5.46816e-05	27019
bin	5.5536e-05	26542
bin	5.63904e-05	26336
bin	5.72448e-05	25788
bin	5.80992e-05	25304
bin	5.89536e-05	24866
bin	5.9808e-05	24688
bin	6.06624e-05	24165
bin	6.15168e-05	23723
bin	6.23712e-05	23995
bin	6.32256e-05	24164
bin	6.408e-05	23856
bin	6.49344e-05	23919
bin	6.57888e-05	23889
bin	6.66432e-05	24690
bin	6.74976e-05	24334
bin	6.8352e-05	24312
bin	6.92064e-05	24587
bin	7.00608e-05	25170
bin	7.09152e-05	25061
bin	7.17696e-05	25160
bin	7.2624e-05	25594
bin	7.34784e-05	25780
bin	7.43328e-05	25678
bin	7.51872e-05	25387
bin	7.60416e-05	25290
bin	7.6896e-05	25134
bin	7.77504e-05	24931
bin	7.86048e-05	24432
bin	7.94592e-05	24102
bin	8.03136e-05	23725
bin	8.1168e-05	23449
bin	8.20224e-05	23404
bin	8.28768e-05	23137
bin	8.37312e-05	22692
bin	8.45856e-05	22474
bin	8.544e-05	22794
bin	8.62944e-05	22346
bin	8.71488e-05	22236
bin	8.80032e-05	22167
bin	8.88576e-05	22402
bin	8.9712e-05	22018
bin	9.05664e-05	22174
bin	9.14208e-05	22036
bin	9.22752e-05	22020
bin	9.31296e-05	21863
bin	9.3984e-05	22102
bin	9.48384e-05	21837
bin	9.56928e-05	21800
bin	9.65472e-05	22195
bin	9.74016e-05	22032
bin	9.8256e-05	22037
bin	9.91104e-05	21788
bin	9.99648e-05	21773
bin	0.0001008192	21644
bin	0.0001016736	21402
bin	0.000102528	20938
bin	0.0001033824	20702
bin	0.0001042368	20764
bin	0.0001050912	20230
bin	0.0001059456	19975
bin	0.0001068	19626
bin	0.0001076544	19543
bin	0.0001085088	19305
bin	0.0001093632	18884
bin	0.0001102176	18688
bin	0.000111072	18689
bin	0.0001119264	18608
bin	0.0001127808	18554
bin	0.0001136352	18570
bin	0.0001144896	18548
bin	0.000115344	18521
bin	0.0001161984	18233
bin	0.0001170528	18042
bin	0.0001179072	18241
bin	0.0001187616	18446
bin	0.000119616	18251
bin	0.0001204704	18328
bin	0.0001213248	18317
bin	0.0001221792	18385
bin	0.0001230336	18689
bin	0.000123888	18433
bin	0.0001247424	18313
bin	0.0001255968	18454
bin	0.0001264512	18076
bin	0.0001273056	17807
bin	0.00012816	17982
bin	0.0001290144	17767
bin	0.0001298688	17512
bin	0.0001307232	17377
bin	0.0001315776	17289
bin	0.000132432	17103
bin	0.0001332864	17281
bin	0.0001341408	17037
bin	0.0001349952	16996
bin	0.0001358496	16673
bin	0.000136704	16858
bin	0.0001375584	16821
bin	0.0001384128	16667
bin	0.0001392672	16688
bin	0.0001401216	16585
bin	0.000140976	16323
bin	0.0001418304	16223
bin	0.0001426848	16320
bin	0.0001435392	16497
bin	0.0001443936	16282
bin	0.000145248	16406
bin	0.0001461024	16245
bin	0.0001469568	16346
bin	0.0001478112	16066
bin	0.0001486656	16182
bin	0.00014952	16034
bin	0.0001503744	16079
bin	0.0001512288	15964
bin	0.0001520832	15774
bin	0.0001529376	15707
bin	0.000153792	15397
bin	0.0001546464	15393
bin	0.0001555008	15094
bin	0.0001563552	15055
bin	0.0001572096	15071
bin	0.000158064	14718
bin	0.0001589184	14755
bin	0.0001597728	14783
bin	0.0001606272	14488
bin	0.0001614816	14534
bin	0.000162336	14505
bin	0.0001631904	14257
bin	0.0001640448	14200
bin	0.0001648992	14199
bin	0.0001657536	14204
bin	0.000166608	14031
bin	0.0001674624	13919
bin	0.0001683168	14041
bin	0.0001691712	13833
bin	0.0001700256	13842
bin	0.00017088	13951
bin	0.0001717344	13895
bin	0.0001725888	13463
bin	0.0001734432	13558
bin	0.0001742976	13517
bin	0.000175152	13390
bin	0.0001760064	13247
bin	0.0001768608	13272
bin	0.0001777152	13249
bin	0.0001785696	12943
bin	0.000179424	13098
bin	0.0001802784	12663
bin	0.0001811328	12764
bin	0.0001819872	12572
bin	0.0001828416	12385
bin	0.000183696	12113
bin	0.0001845504	11893
bin	0.0001854048	11712
bin	0.0001862592	11570
bin	0.0001871136	11615
bin	0.000187968	11399
bin	0.0001888224	11440
bin	0.0001896768	11355
bin	0.0001905312	11543
bin	0.0001913856	11308
bin	0.00019224	11165
bin	0.0001930944	10954
bin	0.0001939488	11160
bin	0.0001948032	11079
bin	0.0001956576	11201
bin	0.000196512	10871
bin	0.0001973664	10582
bin	0.0001982208	10553
bin	0.0001990752	10469
bin	0.0001999296	10299
bin	0.000200784	10365
bin	0.0002016384	10416
bin	0.0002024928	10191
bin	0.0002033472	9680
bin	0.0002042016	9809
bin	0.000205056	9755
bin	0.0002059104	9489
bin	0.0002067648	9327
bin	0.0002076192	9287
bin	0.0002084736	9152
bin	0.000209328	8996
bin	0.0002101824	8914
bin	0.0002110368	8872
bin	0.0002118912	8726
bin	0.0002127456	8690
bin	0.0002136	8523
bin	0.0002144544	8465
bin	0.0002153088	8369
bin	0.0002161632	8230
bin	0.0002170176	8470
bin	0.000217872	8157
bin	0.0002187264	8145
bin	0.0002195808	8069
bin	0.0002204352	7945
bin	0.0002212896	7825
bin	0.000222144	7759
bin	0.0002229984	7694
bin	0.0002238528	7578
bin	0.0002247072	7493
bin	0.0002255616	7447
bin	0.000226416	7133
bin	0.0002272704	7349
bin	0.0002281248	7111
bin	0.0002289792	7057
bin	0.0002298336	6830
bin	0.000230688	6659
bin	0.0002315424	6731
bin	0.0002323968	6615
bin	0.0002332512	6587
bin	0.0002341056	6441
bin	0.00023496	6347
bin	0.0002358144	6294
bin	0.0002366688	6283
bin	0.0002375232	6368
bin	0.0002383776	6129
bin	0.000239232	5909
bin	0.0002400864	6028
bin	0.0002409408	5857
bin	0.0002417952	5890
bin	0.0002426496	5774
bin	0.000243504	5636
bin	0.0002443584	5772
bin	0.0002452128	5537
bin	0.0002460672	5540
bin	0.0002469216	5589
bin	0.000247776	5462
bin	0.0002486304	5227
bin	0.0002494848	5292
bin	0.0002503392	5441
bin	0.0002511936	5314
bin	0.000252048	5159
bin	0.0002529024	5159
bin	0.0002537568	5109
bin	0.0002546112	5034
bin	0.0002554656	4911
bin	0.00025632	4850
bin	0.0002571744	4719
bin	0.0002580288	4669
bin	0.0002588832	4528
bin	0.0002597376	4550
bin	0.000260592	4405
bin	0.0002614464	4543
bin	0.0002623008	4278
bin	0.0002631552	4382
bin	0.0002640096	4189
bin	0.000264864	4190
bin	0.0002657184	4246
bin	0.0002665728	4128
bin	0.0002674272	4211
bin	0.0002682816	4235
bin	0.000269136	4152
bin	0.0002699904	3992
bin	0.0002708448	3891
bin	0.0002716992	3916
bin	0.0002725536	3859
bin	0.000273408	3822
bin	0.0002742624	3684
bin	0.0002751168	3625
bin	0.0002759712	3650
bin	0.0002768256	3557
bin	0.00027768	3573
bin	0.0002785344	3551
bin	0.0002793888	3470
bin	0.0002802432	3321
bin	0.0002810976	3384
bin	0.000281952	3269
bin	0.0002828064	3255
bin	0.0002836608	3120
bin	0.0002845152	3109
bin	0.0002853696	3038
bin	0.000286224	3026
bin	0.0002870784	2988
bin	0.0002879328	3029
bin	0.0002887872	2852
bin	0.0002896416	2922
bin	0.000290496	2884
bin	0.0002913504	2766
bin	0.0002922048	2833
bin	0.0002930592	2837
bin	0.0002939136	2729
bin	0.000294768	2695
bin	0.0002956224	2715
bin	0.0002964768	2727
bin	0.0002973312	2646
bin	0.0002981856	2588
bin	0.00029904	2577
bin	0.0002998944	2457
bin	0.0003007488	2410
bin	0.0003016032	2396
bin	0.0003024576	2299
bin	0.000303312	2338
bin	0.0003041664	2257
bin	0.0003050208	2226
bin	0.0003058752	2125
bin	0.0003067296	2139
bin	0.000307584	2060
bin	0.0003084384	2115
bin	0.0003092928	2050
bin	0.0003101472	2053
bin	0.0003110016	1939
bin	0.000311856	1820
bin	0.0003127104	1802
bin	0.0003135648	1776
bin	0.0003144192	1751
bin	0.0003152736	1828
bin	0.000316128	1832
bin	0.0003169824	1774
bin	0.0003178368	1777
bin	0.0003186912	1683
bin	0.0003195456	1749
bin	0.0003204	1720
bin	0.0003212544	1671
bin	0.0003221088	1659
bin	0.0003229632	1595
bin	0.0003238176	1586
bin	0.000324672	1543
bin	0.0003255264	1589
bin	0.0003263808	1545
bin	0.0003272352	1540
bin	0.0003280896	1487
bin	0.000328944	1545
bin	0.0003297984	1422
bin	0.0003306528	1412
bin	0.0003315072	1352
bin	0.0003323616	1366
bin	0.000333216	1380
bin	0.0003340704	1326
bin	0.0003349248	1313
bin	0.0003357792	1314
bin	0.0003366336	1307
bin	0.000337488	1290
bin	0.0003383424	1231
bin	0.0003391968	1256
bin	0.0003400512	1237
bin	0.0003409056	1240
bin	0.00034176	1203
bin	0.0003426144	1173
bin	0.0003434688	1151
bin	0.0003443232	1192
bin	0.0003451776	1127
bin	0.000346032	1082
bin	0.0003468864	1084
bin	0.0003477408	1112
bin	0.0003485952	1070
bin	0.0003494496	1054
bin	0.000350304	1051
bin	0.0003511584	980
bin	0.0003520128	935
bin	0.0003528672	982
bin	0.0003537216	895
bin	0.000354576	906
bin	0.0003554304	888
bin	0.0003562848	868
bin	0.0003571392	895
bin	0.0003579936	902
bin	0.000358848	876
bin	0.0003597024	834
bin	0.0003605568	886
bin	0.0003614112	854
bin	0.0003622656	824
bin	0.00036312	819
bin	0.0003639744	778
bin	0.0003648288	755
bin	0.0003656832	821
bin	0.0003665376	739
bin	0.000367392	766
bin	0.0003682464	769
bin	0.0003691008	783
bin	0.0003699552	788
bin	0.0003708096	744
bin	0.000371664	765
bin	0.0003725184	739
bin	0.0003733728	716
bin	0.0003742272	718
bin	0.0003750816	759
bin	0.000375936	745
bin	0.0003767904	747
bin	0.0003776448	714
bin	0.0003784992	698
bin	0.0003793536	680
bin	0.000380208	633
bin	0.0003810624	626
bin	0.0003819168	599
bin	0.0003827712	609
bin	0.0003836256	612
bin	0.00038448	593
bin	0.0003853344	598
bin	0.0003861888	576
bin	0.0003870432	591
bin	0.0003878976	609
bin	0.000388752	628
bin	0.0003896064	580
bin	0.0003904608	601
bin	0.0003913152	595
bin	0.0003921696	553
bin	0.000393024	546
bin	0.0003938784	556
bin	0.0003947328	562
bin	0.0003955872	533
bin	0.0003964416	549
bin	0.000397296	553
bin	0.0003981504	495
bin	0.0003990048	520
bin	0.0003998592	538
bin	0.0004007136	503
bin	0.000401568	458
bin	0.0004024224	467
bin	0.0004032768	486
bin	0.0004041312	457
bin	0.0004049856	453
bin	0.00040584	456
bin	0.0004066944	432
bin	0.0004075488	450
bin	0.0004084032	418
bin	0.0004092576	458
bin	0.000410112	442
bin	0.0004109664	457
bin	0.0004118208	435
bin	0.0004126752	448
bin	0.0004135296	400
bin	0.000414384	383
bin	0.0004152384	422
bin	0.0004160928	427
bin	0.0004169472	394
bin	0.0004178016	421
bin	0.000418656	394
bin	0.0004195104	372
bin	0.0004203648	370
bin	0.0004212192	374
bin	0.0004220736	383
bin	0.000422928	387
bin	0.0004237824	344
bin	0.0004246368	359
bin	0.0004254912	373
bin	0.0004263456	353
bin	0.0004272	26685
