version 2
run Butterfly-71-20120709-11:51:11-22822
attr alg 3
attr buf 8
attr configname Butterfly
attr datetime 20120709-11:51:11
attr delta 1.2
attr experiment Butterfly
attr ext true
attr inifile altro.ini
attr iterationvars "$buf=8, $ext=true, $ofedge=2, $delta=1.2, $alg=3"
attr iterationvars2 "$buf=8, $ext=true, $ofedge=2, $delta=1.2, $alg=3, $repetition=0"
attr measurement "$buf=8, $ext=true, $ofedge=2, $delta=1.2, $alg=3"
attr network Torus3d_bub
attr ofedge 2
attr processid 22822
attr repetition 0
attr replication #0
attr resultdir altro-results
attr runnumber 71
attr seedset 71

scalar . 	alg 	3
scalar . 	buf 	8
scalar . 	delta 	1.2
scalar . 	ofedge 	2
scalar Torus3d_bub.timer 	#endTime 	0.001078106998391
scalar Torus3d_bub.timer 	#totalHops 	46461708
scalar Torus3d_bub.timer 	#totalPacks 	6291456
scalar Torus3d_bub.timer 	#totalDerouted 	3932992
scalar Torus3d_bub.timer 	#totalOutFlanked 	3746441
scalar Torus3d_bub.timer 	#totalCQRed 	186551
scalar Torus3d_bub.timer 	#LB 	0.000786432
scalar Torus3d_bub.timer 	#ratio 	0.72945635375125
statistic Torus3d_bub.timer 	"Hop Times"
field count 6291456
field mean 3.3077065369964e-05
field stddev 5.1030665069684e-05
field sum 208.10290138425
field sqrsum 0.023267192290325
field min 4.50333125e-07
field max 0.000649944333265
bin	-INF	0
bin	0	0
bin	7.12e-08	0
bin	1.424e-07	0
bin	2.136e-07	0
bin	2.848e-07	0
bin	3.56e-07	0
bin	4.272e-07	19
bin	4.984e-07	3206
bin	5.696e-07	2282
bin	6.408e-07	4523
bin	7.12e-07	8401
bin	7.832e-07	2039
bin	8.544e-07	5240
bin	9.256e-07	11529
bin	9.968e-07	4293
bin	1.068e-06	5898
bin	1.1392e-06	10861
bin	1.2104e-06	15739
bin	1.2816e-06	14588
bin	1.3528e-06	18260
bin	1.424e-06	14366
bin	1.4952e-06	19387
bin	1.5664e-06	13371
bin	1.6376e-06	22272
bin	1.7088e-06	19808
bin	1.78e-06	18468
bin	1.8512e-06	17887
bin	1.9224e-06	21292
bin	1.9936e-06	26291
bin	2.0648e-06	22769
bin	2.136e-06	23883
bin	2.2072e-06	15695
bin	2.2784e-06	27692
bin	2.3496e-06	19847
bin	2.4208e-06	19741
bin	2.492e-06	24073
bin	2.5632e-06	27941
bin	2.6344e-06	16074
bin	2.7056e-06	19986
bin	2.7768e-06	21779
bin	2.848e-06	18571
bin	2.9192e-06	19378
bin	2.9904e-06	18834
bin	3.0616e-06	23470
bin	3.1328e-06	17001
bin	3.204e-06	16613
bin	3.2752e-06	22276
bin	3.3464e-06	14554
bin	3.4176e-06	18190
bin	3.4888e-06	12728
bin	3.56e-06	19648
bin	3.6312e-06	16147
bin	3.7024e-06	14663
bin	3.7736e-06	13910
bin	3.8448e-06	20015
bin	3.916e-06	12739
bin	3.9872e-06	15626
bin	4.0584e-06	18209
bin	4.1296e-06	12715
bin	4.2008e-06	12711
bin	4.272e-06	12474
bin	4.3432e-06	17687
bin	4.4144e-06	12563
bin	4.4856e-06	12341
bin	4.5568e-06	12429
bin	4.628e-06	16681
bin	4.6992e-06	12523
bin	4.7704e-06	14610
bin	4.8416e-06	16982
bin	4.9128e-06	12610
bin	4.984e-06	13310
bin	5.0552e-06	12436
bin	5.1264e-06	17065
bin	5.1976e-06	12631
bin	5.2688e-06	12359
bin	5.34e-06	12510
bin	5.4112e-06	16662
bin	5.4824e-06	12395
bin	5.5536e-06	12222
bin	5.6248e-06	17122
bin	5.696e-06	12221
bin	5.7672e-06	11974
bin	5.8384e-06	12174
bin	5.9096e-06	19039
bin	5.9808e-06	12269
bin	6.052e-06	12161
bin	6.1232e-06	12312
bin	6.1944e-06	15999
bin	6.2656e-06	12145
bin	6.3368e-06	11921
bin	6.408e-06	16334
bin	6.4792e-06	12186
bin	6.5504e-06	11942
bin	6.6216e-06	11998
bin	6.6928e-06	16394
bin	6.764e-06	12105
bin	6.8352e-06	11744
bin	6.9064e-06	12198
bin	6.9776e-06	16164
bin	7.0488e-06	11991
bin	7.12e-06	11716
bin	7.1912e-06	16183
bin	7.2624e-06	11816
bin	7.3336e-06	11583
bin	7.4048e-06	11283
bin	7.476e-06	15935
bin	7.5472e-06	11594
bin	7.6184e-06	11179
bin	7.6896e-06	11473
bin	7.7608e-06	15523
bin	7.832e-06	11342
bin	7.9032e-06	11054
bin	7.9744e-06	15613
bin	8.0456e-06	11266
bin	8.1168e-06	11033
bin	8.188e-06	11000
bin	8.2592e-06	13484
bin	8.3304e-06	11221
bin	8.4016e-06	11078
bin	8.4728e-06	11356
bin	8.544e-06	15148
bin	8.6152e-06	11093
bin	8.6864e-06	10895
bin	8.7576e-06	15518
bin	8.8288e-06	11368
bin	8.9e-06	10992
bin	8.9712e-06	10997
bin	9.0424e-06	15560
bin	9.1136e-06	11205
bin	9.1848e-06	12820
bin	9.256e-06	11048
bin	9.3272e-06	13140
bin	9.3984e-06	11203
bin	9.4696e-06	10998
bin	9.5408e-06	15475
bin	9.612e-06	11132
bin	9.6832e-06	11145
bin	9.7544e-06	12869
bin	9.8256e-06	17357
bin	9.8968e-06	11098
bin	9.968e-06	10845
bin	1.00392e-05	11248
bin	1.01104e-05	13315
bin	1.01816e-05	11204
bin	1.02528e-05	13014
bin	1.0324e-05	15447
bin	1.03952e-05	13238
bin	1.04664e-05	10939
bin	1.05376e-05	13011
bin	1.06088e-05	13516
bin	1.068e-05	11049
bin	1.07512e-05	10967
bin	1.08224e-05	11081
bin	1.08936e-05	13266
bin	1.09648e-05	11365
bin	1.1036e-05	11076
bin	1.11072e-05	13348
bin	1.11784e-05	11060
bin	1.12496e-05	11090
bin	1.13208e-05	10776
bin	1.1392e-05	15414
bin	1.14632e-05	10955
bin	1.15344e-05	11102
bin	1.16056e-05	10950
bin	1.16768e-05	15234
bin	1.1748e-05	11061
bin	1.18192e-05	10950
bin	1.18904e-05	15359
bin	1.19616e-05	10941
bin	1.20328e-05	11059
bin	1.2104e-05	10713
bin	1.21752e-05	15212
bin	1.22464e-05	10755
bin	1.23176e-05	10712
bin	1.23888e-05	10973
bin	1.246e-05	15070
bin	1.25312e-05	11001
bin	1.26024e-05	10796
bin	1.26736e-05	13201
bin	1.27448e-05	10942
bin	1.2816e-05	10652
bin	1.28872e-05	10770
bin	1.29584e-05	10935
bin	1.30296e-05	10673
bin	1.31008e-05	10831
bin	1.3172e-05	10527
bin	1.32432e-05	10753
bin	1.33144e-05	10827
bin	1.33856e-05	10495
bin	1.34568e-05	10674
bin	1.3528e-05	10753
bin	1.35992e-05	10660
bin	1.36704e-05	10747
bin	1.37416e-05	10556
bin	1.38128e-05	10541
bin	1.3884e-05	10660
bin	1.39552e-05	10476
bin	1.40264e-05	11513
bin	1.40976e-05	10743
bin	1.41688e-05	10483
bin	1.424e-05	10475
bin	1.43112e-05	12459
bin	1.43824e-05	10469
bin	1.44536e-05	10410
bin	1.45248e-05	10356
bin	1.4596e-05	10488
bin	1.46672e-05	10434
bin	1.47384e-05	10434
bin	1.48096e-05	10268
bin	1.48808e-05	11441
bin	1.4952e-05	10256
bin	1.50232e-05	11271
bin	1.50944e-05	11434
bin	1.51656e-05	10290
bin	1.52368e-05	10205
bin	1.5308e-05	10459
bin	1.53792e-05	10326
bin	1.54504e-05	10460
bin	1.55216e-05	10377
bin	1.55928e-05	10325
bin	1.5664e-05	10228
bin	1.57352e-05	10309
bin	1.58064e-05	10062
bin	1.58776e-05	10432
bin	1.59488e-05	10341
bin	1.602e-05	9996
bin	1.60912e-05	10116
bin	1.61624e-05	11141
bin	1.62336e-05	10256
bin	1.63048e-05	10060
bin	1.6376e-05	10056
bin	1.64472e-05	11251
bin	1.65184e-05	10124
bin	1.65896e-05	10042
bin	1.66608e-05	10082
bin	1.6732e-05	10308
bin	1.68032e-05	9882
bin	1.68744e-05	10005
bin	1.69456e-05	10165
bin	1.70168e-05	10214
bin	1.7088e-05	10059
bin	1.71592e-05	9983
bin	1.72304e-05	10111
bin	1.73016e-05	10183
bin	1.73728e-05	9922
bin	1.7444e-05	9991
bin	1.75152e-05	10099
bin	1.75864e-05	9922
bin	1.76576e-05	10039
bin	1.77288e-05	9895
bin	1.78e-05	9902
bin	1.78712e-05	9703
bin	1.79424e-05	9770
bin	1.80136e-05	9789
bin	1.80848e-05	9749
bin	1.8156e-05	9657
bin	1.82272e-05	9826
bin	1.82984e-05	9764
bin	1.83696e-05	9555
bin	1.84408e-05	9727
bin	1.8512e-05	9664
bin	1.85832e-05	9831
bin	1.86544e-05	9668
bin	1.87256e-05	9658
bin	1.87968e-05	9744
bin	1.8868e-05	9624
bin	1.89392e-05	9451
bin	1.90104e-05	9495
bin	1.90816e-05	9686
bin	1.91528e-05	9552
bin	1.9224e-05	9494
bin	1.92952e-05	9522
bin	1.93664e-05	9576
bin	1.94376e-05	9416
bin	1.95088e-05	9478
bin	1.958e-05	9129
bin	1.96512e-05	9433
bin	1.97224e-05	9236
bin	1.97936e-05	9380
bin	1.98648e-05	9401
bin	1.9936e-05	9325
bin	2.00072e-05	9172
bin	2.00784e-05	9190
bin	2.01496e-05	9435
bin	2.02208e-05	9413
bin	2.0292e-05	9467
bin	2.03632e-05	9145
bin	2.04344e-05	9199
bin	2.05056e-05	8955
bin	2.05768e-05	9112
bin	2.0648e-05	9067
bin	2.07192e-05	8971
bin	2.07904e-05	9070
bin	2.08616e-05	8928
bin	2.09328e-05	9017
bin	2.1004e-05	8796
bin	2.10752e-05	8893
bin	2.11464e-05	8794
bin	2.12176e-05	8619
bin	2.12888e-05	8781
bin	2.136e-05	8747
bin	2.14312e-05	8859
bin	2.15024e-05	8656
bin	2.15736e-05	8735
bin	2.16448e-05	8625
bin	2.1716e-05	8669
bin	2.17872e-05	8646
bin	2.18584e-05	8572
bin	2.19296e-05	8412
bin	2.20008e-05	8613
bin	2.2072e-05	8258
bin	2.21432e-05	8395
bin	2.22144e-05	8346
bin	2.22856e-05	8163
bin	2.23568e-05	8103
bin	2.2428e-05	8307
bin	2.24992e-05	8197
bin	2.25704e-05	8030
bin	2.26416e-05	8213
bin	2.27128e-05	8134
bin	2.2784e-05	7866
bin	2.28552e-05	7958
bin	2.29264e-05	7923
bin	2.29976e-05	8061
bin	2.30688e-05	7874
bin	2.314e-05	7911
bin	2.32112e-05	7829
bin	2.32824e-05	8033
bin	2.33536e-05	7895
bin	2.34248e-05	7939
bin	2.3496e-05	7767
bin	2.35672e-05	7822
bin	2.36384e-05	7651
bin	2.37096e-05	7845
bin	2.37808e-05	7869
bin	2.3852e-05	7629
bin	2.39232e-05	7799
bin	2.39944e-05	7729
bin	2.40656e-05	7860
bin	2.41368e-05	7657
bin	2.4208e-05	7746
bin	2.42792e-05	7702
bin	2.43504e-05	7699
bin	2.44216e-05	7548
bin	2.44928e-05	7516
bin	2.4564e-05	7641
bin	2.46352e-05	7414
bin	2.47064e-05	7333
bin	2.47776e-05	7356
bin	2.48488e-05	7610
bin	2.492e-05	7329
bin	2.49912e-05	7359
bin	2.50624e-05	7399
bin	2.51336e-05	7465
bin	2.52048e-05	7295
bin	2.5276e-05	7348
bin	2.53472e-05	7293
bin	2.54184e-05	7253
bin	2.54896e-05	7232
bin	2.55608e-05	7306
bin	2.5632e-05	7235
bin	2.57032e-05	7103
bin	2.57744e-05	7110
bin	2.58456e-05	6938
bin	2.59168e-05	7068
bin	2.5988e-05	6856
bin	2.60592e-05	6833
bin	2.61304e-05	7141
bin	2.62016e-05	6878
bin	2.62728e-05	6916
bin	2.6344e-05	6902
bin	2.64152e-05	6854
bin	2.64864e-05	6868
bin	2.65576e-05	6653
bin	2.66288e-05	6821
bin	2.67e-05	6805
bin	2.67712e-05	6636
bin	2.68424e-05	6705
bin	2.69136e-05	6710
bin	2.69848e-05	6577
bin	2.7056e-05	6590
bin	2.71272e-05	6568
bin	2.71984e-05	6706
bin	2.72696e-05	6554
bin	2.73408e-05	6470
bin	2.7412e-05	6516
bin	2.74832e-05	6435
bin	2.75544e-05	6412
bin	2.76256e-05	6272
bin	2.76968e-05	6549
bin	2.7768e-05	6280
bin	2.78392e-05	6391
bin	2.79104e-05	6212
bin	2.79816e-05	6237
bin	2.80528e-05	6030
bin	2.8124e-05	6052
bin	2.81952e-05	6147
bin	2.82664e-05	5981
bin	2.83376e-05	5865
bin	2.84088e-05	5969
bin	2.848e-05	6169
bin	2.85512e-05	5894
bin	2.86224e-05	5820
bin	2.86936e-05	5874
bin	2.87648e-05	5931
bin	2.8836e-05	5781
bin	2.89072e-05	5772
bin	2.89784e-05	5875
bin	2.90496e-05	5798
bin	2.91208e-05	5604
bin	2.9192e-05	5768
bin	2.92632e-05	5881
bin	2.93344e-05	5586
bin	2.94056e-05	5611
bin	2.94768e-05	5596
bin	2.9548e-05	5693
bin	2.96192e-05	5658
bin	2.96904e-05	5593
bin	2.97616e-05	5515
bin	2.98328e-05	5688
bin	2.9904e-05	5576
bin	2.99752e-05	5604
bin	3.00464e-05	5776
bin	3.01176e-05	5585
bin	3.01888e-05	5542
bin	3.026e-05	5457
bin	3.03312e-05	5635
bin	3.04024e-05	5536
bin	3.04736e-05	5328
bin	3.05448e-05	5581
bin	3.0616e-05	5460
bin	3.06872e-05	5382
bin	3.07584e-05	5390
bin	3.08296e-05	5561
bin	3.09008e-05	5257
bin	3.0972e-05	5402
bin	3.10432e-05	5260
bin	3.11144e-05	5373
bin	3.11856e-05	5235
bin	3.12568e-05	5137
bin	3.1328e-05	5347
bin	3.13992e-05	5417
bin	3.14704e-05	5152
bin	3.15416e-05	5269
bin	3.16128e-05	5390
bin	3.1684e-05	5165
bin	3.17552e-05	5209
bin	3.18264e-05	5126
bin	3.18976e-05	5208
bin	3.19688e-05	5160
bin	3.204e-05	5014
bin	3.21112e-05	5296
bin	3.21824e-05	5119
bin	3.22536e-05	5132
bin	3.23248e-05	5030
bin	3.2396e-05	5047
bin	3.24672e-05	4919
bin	3.25384e-05	5095
bin	3.26096e-05	4959
bin	3.26808e-05	4791
bin	3.2752e-05	4761
bin	3.28232e-05	4846
bin	3.28944e-05	4786
bin	3.29656e-05	4745
bin	3.30368e-05	4724
bin	3.3108e-05	4657
bin	3.31792e-05	4716
bin	3.32504e-05	4696
bin	3.33216e-05	4569
bin	3.33928e-05	4611
bin	3.3464e-05	4555
bin	3.35352e-05	4526
bin	3.36064e-05	4426
bin	3.36776e-05	4549
bin	3.37488e-05	4416
bin	3.382e-05	4435
bin	3.38912e-05	4426
bin	3.39624e-05	4503
bin	3.40336e-05	4442
bin	3.41048e-05	4246
bin	3.4176e-05	4331
bin	3.42472e-05	4273
bin	3.43184e-05	4221
bin	3.43896e-05	4228
bin	3.44608e-05	4337
bin	3.4532e-05	4236
bin	3.46032e-05	4228
bin	3.46744e-05	4174
bin	3.47456e-05	4335
bin	3.48168e-05	4094
bin	3.4888e-05	4139
bin	3.49592e-05	4128
bin	3.50304e-05	4114
bin	3.51016e-05	3998
bin	3.51728e-05	4013
bin	3.5244e-05	3983
bin	3.53152e-05	4030
bin	3.53864e-05	3976
bin	3.54576e-05	3864
bin	3.55288e-05	4010
bin	3.56e-05	1466956
statistic Torus3d_bub.timer 	"Life Times"
field count 6291456
field mean 0.00015254857182466
field stddev 0.00011235401038698
field sum 959.75262749771
field sqrsum 0.22582859446989
field min 7.33332437e-07
field max 0.000841804332287
bin	-INF	0
bin	0	4967
bin	8.544e-07	23124
bin	1.7088e-06	35082
bin	2.5632e-06	29806
bin	3.4176e-06	27529
bin	4.272e-06	31232
bin	5.1264e-06	42827
bin	5.9808e-06	30673
bin	6.8352e-06	29459
bin	7.6896e-06	35431
bin	8.544e-06	34566
bin	9.3984e-06	34536
bin	1.02528e-05	44882
bin	1.11072e-05	49040
bin	1.19616e-05	46429
bin	1.2816e-05	28825
bin	1.36704e-05	27543
bin	1.45248e-05	24141
bin	1.53792e-05	31952
bin	1.62336e-05	29367
bin	1.7088e-05	27344
bin	1.79424e-05	30719
bin	1.87968e-05	29460
bin	1.96512e-05	31537
bin	2.05056e-05	33922
bin	2.136e-05	29027
bin	2.22144e-05	28141
bin	2.30688e-05	25063
bin	2.39232e-05	27395
bin	2.47776e-05	23183
bin	2.5632e-05	23560
bin	2.64864e-05	23138
bin	2.73408e-05	23783
bin	2.81952e-05	24520
bin	2.90496e-05	21559
bin	2.9904e-05	21814
bin	3.07584e-05	18916
bin	3.16128e-05	19871
bin	3.24672e-05	19095
bin	3.33216e-05	18221
bin	3.4176e-05	17884
bin	3.50304e-05	17826
bin	3.58848e-05	17619
bin	3.67392e-05	17720
bin	3.75936e-05	18063
bin	3.8448e-05	17730
bin	3.93024e-05	17829
bin	4.01568e-05	18234
bin	4.10112e-05	18003
bin	4.18656e-05	17934
bin	4.272e-05	17913
bin	4.35744e-05	17892
bin	4.44288e-05	17740
bin	4.52832e-05	17463
bin	4.61376e-05	17305
bin	4.6992e-05	17307
bin	4.78464e-05	17264
bin	4.87008e-05	16918
bin	4.95552e-05	16696
bin	5.04096e-05	16811
bin	5.1264e-05	16667
bin	5.21184e-05	16509
bin	5.29728e-05	16502
bin	5.38272e-05	16473
bin	5.46816e-05	16523
bin	5.5536e-05	16289
bin	5.63904e-05	16546
bin	5.72448e-05	16272
bin	5.80992e-05	16609
bin	5.89536e-05	16652
bin	5.9808e-05	16836
bin	6.06624e-05	16779
bin	6.15168e-05	17148
bin	6.23712e-05	17126
bin	6.32256e-05	16992
bin	6.408e-05	17067
bin	6.49344e-05	17077
bin	6.57888e-05	17245
bin	6.66432e-05	17016
bin	6.74976e-05	17169
bin	6.8352e-05	17023
bin	6.92064e-05	16896
bin	7.00608e-05	16981
bin	7.09152e-05	17031
bin	7.17696e-05	16902
bin	7.2624e-05	16866
bin	7.34784e-05	16874
bin	7.43328e-05	16577
bin	7.51872e-05	16853
bin	7.60416e-05	17017
bin	7.6896e-05	16996
bin	7.77504e-05	16940
bin	7.86048e-05	16852
bin	7.94592e-05	17139
bin	8.03136e-05	16851
bin	8.1168e-05	17052
bin	8.20224e-05	17072
bin	8.28768e-05	17157
bin	8.37312e-05	17071
bin	8.45856e-05	17126
bin	8.544e-05	16850
bin	8.62944e-05	16934
bin	8.71488e-05	16690
bin	8.80032e-05	16445
bin	8.88576e-05	16521
bin	8.9712e-05	16632
bin	9.05664e-05	16282
bin	9.14208e-05	16035
bin	9.22752e-05	16184
bin	9.31296e-05	16038
bin	9.3984e-05	16026
bin	9.48384e-05	15822
bin	9.56928e-05	15917
bin	9.65472e-05	15837
bin	9.74016e-05	15798
bin	9.8256e-05	15956
bin	9.91104e-05	15974
bin	9.99648e-05	15925
bin	0.0001008192	16108
bin	0.0001016736	15947
bin	0.000102528	16095
bin	0.0001033824	15940
bin	0.0001042368	16103
bin	0.0001050912	16017
bin	0.0001059456	16188
bin	0.0001068	15821
bin	0.0001076544	15785
bin	0.0001085088	16105
bin	0.0001093632	16071
bin	0.0001102176	15767
bin	0.000111072	15697
bin	0.0001119264	15667
bin	0.0001127808	15899
bin	0.0001136352	15481
bin	0.0001144896	15562
bin	0.000115344	15506
bin	0.0001161984	15528
bin	0.0001170528	15544
bin	0.0001179072	15311
bin	0.0001187616	15473
bin	0.000119616	15528
bin	0.0001204704	15612
bin	0.0001213248	15680
bin	0.0001221792	15493
bin	0.0001230336	15771
bin	0.000123888	15855
bin	0.0001247424	15786
bin	0.0001255968	15702
bin	0.0001264512	15797
bin	0.0001273056	15838
bin	0.00012816	15670
bin	0.0001290144	15591
bin	0.0001298688	15541
bin	0.0001307232	15471
bin	0.0001315776	15438
bin	0.000132432	15551
bin	0.0001332864	15519
bin	0.0001341408	15338
bin	0.0001349952	15504
bin	0.0001358496	15553
bin	0.000136704	15746
bin	0.0001375584	15673
bin	0.0001384128	15663
bin	0.0001392672	15449
bin	0.0001401216	15422
bin	0.000140976	15466
bin	0.0001418304	15471
bin	0.0001426848	15637
bin	0.0001435392	15144
bin	0.0001443936	15244
bin	0.000145248	15547
bin	0.0001461024	15533
bin	0.0001469568	15402
bin	0.0001478112	15566
bin	0.0001486656	15441
bin	0.00014952	15469
bin	0.0001503744	15396
bin	0.0001512288	15300
bin	0.0001520832	15395
bin	0.0001529376	15345
bin	0.000153792	15177
bin	0.0001546464	15372
bin	0.0001555008	15253
bin	0.0001563552	14828
bin	0.0001572096	15237
bin	0.000158064	15197
bin	0.0001589184	15233
bin	0.0001597728	14961
bin	0.0001606272	15170
bin	0.0001614816	15088
bin	0.000162336	14966
bin	0.0001631904	14977
bin	0.0001640448	15257
bin	0.0001648992	15086
bin	0.0001657536	15146
bin	0.000166608	15088
bin	0.0001674624	15224
bin	0.0001683168	14968
bin	0.0001691712	15175
bin	0.0001700256	14945
bin	0.00017088	14959
bin	0.0001717344	14999
bin	0.0001725888	15010
bin	0.0001734432	15092
bin	0.0001742976	15026
bin	0.000175152	15022
bin	0.0001760064	15028
bin	0.0001768608	15106
bin	0.0001777152	14707
bin	0.0001785696	14828
bin	0.000179424	14701
bin	0.0001802784	14753
bin	0.0001811328	14758
bin	0.0001819872	14861
bin	0.0001828416	14795
bin	0.000183696	14723
bin	0.0001845504	14549
bin	0.0001854048	14596
bin	0.0001862592	14782
bin	0.0001871136	14631
bin	0.000187968	14382
bin	0.0001888224	14422
bin	0.0001896768	14426
bin	0.0001905312	14602
bin	0.0001913856	14510
bin	0.00019224	14544
bin	0.0001930944	14589
bin	0.0001939488	14690
bin	0.0001948032	14539
bin	0.0001956576	14373
bin	0.000196512	14315
bin	0.0001973664	14362
bin	0.0001982208	14365
bin	0.0001990752	14232
bin	0.0001999296	14107
bin	0.000200784	14269
bin	0.0002016384	14382
bin	0.0002024928	13902
bin	0.0002033472	14082
bin	0.0002042016	14213
bin	0.000205056	14034
bin	0.0002059104	13914
bin	0.0002067648	13913
bin	0.0002076192	14226
bin	0.0002084736	13972
bin	0.000209328	13826
bin	0.0002101824	13972
bin	0.0002110368	13708
bin	0.0002118912	13784
bin	0.0002127456	13752
bin	0.0002136	13685
bin	0.0002144544	13399
bin	0.0002153088	13475
bin	0.0002161632	13430
bin	0.0002170176	13467
bin	0.000217872	13736
bin	0.0002187264	13486
bin	0.0002195808	13423
bin	0.0002204352	13434
bin	0.0002212896	13495
bin	0.000222144	13512
bin	0.0002229984	13405
bin	0.0002238528	13464
bin	0.0002247072	13286
bin	0.0002255616	13198
bin	0.000226416	13356
bin	0.0002272704	13308
bin	0.0002281248	13185
bin	0.0002289792	13175
bin	0.0002298336	13045
bin	0.000230688	12784
bin	0.0002315424	12916
bin	0.0002323968	12609
bin	0.0002332512	12813
bin	0.0002341056	12706
bin	0.00023496	12621
bin	0.0002358144	12646
bin	0.0002366688	12594
bin	0.0002375232	12578
bin	0.0002383776	12399
bin	0.000239232	12516
bin	0.0002400864	12376
bin	0.0002409408	12478
bin	0.0002417952	12393
bin	0.0002426496	12506
bin	0.000243504	12719
bin	0.0002443584	12457
bin	0.0002452128	12473
bin	0.0002460672	12275
bin	0.0002469216	12267
bin	0.000247776	12025
bin	0.0002486304	11951
bin	0.0002494848	11995
bin	0.0002503392	11930
bin	0.0002511936	11897
bin	0.000252048	11874
bin	0.0002529024	11738
bin	0.0002537568	11678
bin	0.0002546112	11619
bin	0.0002554656	11851
bin	0.00025632	11613
bin	0.0002571744	11645
bin	0.0002580288	11638
bin	0.0002588832	11434
bin	0.0002597376	11494
bin	0.000260592	11267
bin	0.0002614464	11327
bin	0.0002623008	11248
bin	0.0002631552	11063
bin	0.0002640096	11198
bin	0.000264864	10983
bin	0.0002657184	10831
bin	0.0002665728	10838
bin	0.0002674272	10666
bin	0.0002682816	10691
bin	0.000269136	10484
bin	0.0002699904	10370
bin	0.0002708448	10338
bin	0.0002716992	10399
bin	0.0002725536	10249
bin	0.000273408	10241
bin	0.0002742624	10285
bin	0.0002751168	10091
bin	0.0002759712	9798
bin	0.0002768256	9944
bin	0.00027768	9638
bin	0.0002785344	9670
bin	0.0002793888	9752
bin	0.0002802432	9675
bin	0.0002810976	9559
bin	0.000281952	9462
bin	0.0002828064	9490
bin	0.0002836608	9202
bin	0.0002845152	9109
bin	0.0002853696	9016
bin	0.000286224	9029
bin	0.0002870784	8902
bin	0.0002879328	8964
bin	0.0002887872	8905
bin	0.0002896416	8869
bin	0.000290496	8765
bin	0.0002913504	8687
bin	0.0002922048	8660
bin	0.0002930592	8481
bin	0.0002939136	8432
bin	0.000294768	8389
bin	0.0002956224	8277
bin	0.0002964768	8286
bin	0.0002973312	8396
bin	0.0002981856	8267
bin	0.00029904	8213
bin	0.0002998944	8016
bin	0.0003007488	7990
bin	0.0003016032	8044
bin	0.0003024576	7797
bin	0.000303312	7699
bin	0.0003041664	7507
bin	0.0003050208	7580
bin	0.0003058752	7438
bin	0.0003067296	7474
bin	0.000307584	7421
bin	0.0003084384	7294
bin	0.0003092928	7233
bin	0.0003101472	7280
bin	0.0003110016	7242
bin	0.000311856	7131
bin	0.0003127104	6998
bin	0.0003135648	7022
bin	0.0003144192	7054
bin	0.0003152736	7048
bin	0.000316128	6745
bin	0.0003169824	6683
bin	0.0003178368	6811
bin	0.0003186912	6500
bin	0.0003195456	6401
bin	0.0003204	6416
bin	0.0003212544	6400
bin	0.0003221088	6284
bin	0.0003229632	6244
bin	0.0003238176	6146
bin	0.000324672	6037
bin	0.0003255264	6033
bin	0.0003263808	6157
bin	0.0003272352	5976
bin	0.0003280896	5852
bin	0.000328944	5823
bin	0.0003297984	5727
bin	0.0003306528	5681
bin	0.0003315072	5544
bin	0.0003323616	5522
bin	0.000333216	5391
bin	0.0003340704	5493
bin	0.0003349248	5435
bin	0.0003357792	5279
bin	0.0003366336	5129
bin	0.000337488	5056
bin	0.0003383424	5034
bin	0.0003391968	4969
bin	0.0003400512	4983
bin	0.0003409056	4811
bin	0.00034176	4862
bin	0.0003426144	4706
bin	0.0003434688	4710
bin	0.0003443232	4707
bin	0.0003451776	4681
bin	0.000346032	4621
bin	0.0003468864	4516
bin	0.0003477408	4478
bin	0.0003485952	4336
bin	0.0003494496	4331
bin	0.000350304	4346
bin	0.0003511584	4310
bin	0.0003520128	4178
bin	0.0003528672	4093
bin	0.0003537216	4230
bin	0.000354576	4062
bin	0.0003554304	4035
bin	0.0003562848	3913
bin	0.0003571392	3900
bin	0.0003579936	3775
bin	0.000358848	3771
bin	0.0003597024	3772
bin	0.0003605568	3710
bin	0.0003614112	3721
bin	0.0003622656	3626
bin	0.00036312	3530
bin	0.0003639744	3496
bin	0.0003648288	3609
bin	0.0003656832	3448
bin	0.0003665376	3436
bin	0.000367392	3301
bin	0.0003682464	3345
bin	0.0003691008	3360
bin	0.0003699552	3278
bin	0.0003708096	3277
bin	0.000371664	3325
bin	0.0003725184	3220
bin	0.0003733728	3179
bin	0.0003742272	3088
bin	0.0003750816	3078
bin	0.000375936	3001
bin	0.0003767904	3050
bin	0.0003776448	2928
bin	0.0003784992	2986
bin	0.0003793536	2888
bin	0.000380208	2881
bin	0.0003810624	2903
bin	0.0003819168	2793
bin	0.0003827712	2702
bin	0.0003836256	2747
bin	0.00038448	2734
bin	0.0003853344	2698
bin	0.0003861888	2614
bin	0.0003870432	2539
bin	0.0003878976	2566
bin	0.000388752	2585
bin	0.0003896064	2593
bin	0.0003904608	2497
bin	0.0003913152	2384
bin	0.0003921696	2490
bin	0.000393024	2427
bin	0.0003938784	2445
bin	0.0003947328	2344
bin	0.0003955872	2341
bin	0.0003964416	2297
bin	0.000397296	2209
bin	0.0003981504	2268
bin	0.0003990048	2195
bin	0.0003998592	2169
bin	0.0004007136	2243
bin	0.000401568	2193
bin	0.0004024224	2173
bin	0.0004032768	2050
bin	0.0004041312	2098
bin	0.0004049856	2033
bin	0.00040584	1927
bin	0.0004066944	1926
bin	0.0004075488	1958
bin	0.0004084032	1898
bin	0.0004092576	1850
bin	0.000410112	1841
bin	0.0004109664	1811
bin	0.0004118208	1806
bin	0.0004126752	1792
bin	0.0004135296	1780
bin	0.000414384	1775
bin	0.0004152384	1653
bin	0.0004160928	1662
bin	0.0004169472	1655
bin	0.0004178016	1648
bin	0.000418656	1576
bin	0.0004195104	1597
bin	0.0004203648	1630
bin	0.0004212192	1544
bin	0.0004220736	1501
bin	0.000422928	1455
bin	0.0004237824	1510
bin	0.0004246368	1481
bin	0.0004254912	1474
bin	0.0004263456	1352
bin	0.0004272	94910
