version 2
run Butterfly-73-20120709-11:57:11-22824
attr alg 1
attr buf 8
attr configname Butterfly
attr datetime 20120709-11:57:11
attr delta 1.4
attr experiment Butterfly
attr ext true
attr inifile altro.ini
attr iterationvars "$buf=8, $ext=true, $ofedge=2, $delta=1.4, $alg=1"
attr iterationvars2 "$buf=8, $ext=true, $ofedge=2, $delta=1.4, $alg=1, $repetition=0"
attr measurement "$buf=8, $ext=true, $ofedge=2, $delta=1.4, $alg=1"
attr network Torus3d_bub
attr ofedge 2
attr processid 22824
attr repetition 0
attr replication #0
attr resultdir altro-results
attr runnumber 73
attr seedset 73

scalar . 	alg 	1
scalar . 	buf 	8
scalar . 	delta 	1.4
scalar . 	ofedge 	2
scalar Torus3d_bub.timer 	#endTime 	0.001019781665096
scalar Torus3d_bub.timer 	#totalHops 	46932063
scalar Torus3d_bub.timer 	#totalPacks 	6291456
scalar Torus3d_bub.timer 	#totalDerouted 	3939485
scalar Torus3d_bub.timer 	#totalOutFlanked 	3939485
scalar Torus3d_bub.timer 	#totalCQRed 	0
scalar Torus3d_bub.timer 	#LB 	0.000786432
scalar Torus3d_bub.timer 	#ratio 	0.77117683805971
statistic Torus3d_bub.timer 	"Hop Times"
field count 6291456
field mean 3.9609839419829e-05
field stddev 5.7583911623584e-05
field sum 249.20356187692
field sqrsum 0.030732791975121
field min 4.43038079e-07
field max 0.000628807238071
bin	-INF	0
bin	0	0
bin	7.12e-08	0
bin	1.424e-07	0
bin	2.136e-07	0
bin	2.848e-07	0
bin	3.56e-07	0
bin	4.272e-07	42
bin	4.984e-07	2159
bin	5.696e-07	2275
bin	6.408e-07	2653
bin	7.12e-07	7603
bin	7.832e-07	3648
bin	8.544e-07	5968
bin	9.256e-07	8444
bin	9.968e-07	1414
bin	1.068e-06	7993
bin	1.1392e-06	5418
bin	1.2104e-06	15379
bin	1.2816e-06	6879
bin	1.3528e-06	13763
bin	1.424e-06	11226
bin	1.4952e-06	19868
bin	1.5664e-06	9954
bin	1.6376e-06	20840
bin	1.7088e-06	15565
bin	1.78e-06	18291
bin	1.8512e-06	18293
bin	1.9224e-06	13974
bin	1.9936e-06	25559
bin	2.0648e-06	22416
bin	2.136e-06	16555
bin	2.2072e-06	13250
bin	2.2784e-06	21959
bin	2.3496e-06	12737
bin	2.4208e-06	14519
bin	2.492e-06	22661
bin	2.5632e-06	18069
bin	2.6344e-06	14151
bin	2.7056e-06	14094
bin	2.7768e-06	16795
bin	2.848e-06	14441
bin	2.9192e-06	16218
bin	2.9904e-06	12063
bin	3.0616e-06	17665
bin	3.1328e-06	11234
bin	3.204e-06	10763
bin	3.2752e-06	16160
bin	3.3464e-06	9627
bin	3.4176e-06	10539
bin	3.4888e-06	9598
bin	3.56e-06	12683
bin	3.6312e-06	8367
bin	3.7024e-06	9444
bin	3.7736e-06	8701
bin	3.8448e-06	14835
bin	3.916e-06	8627
bin	3.9872e-06	8639
bin	4.0584e-06	13055
bin	4.1296e-06	8786
bin	4.2008e-06	8642
bin	4.272e-06	9823
bin	4.3432e-06	13116
bin	4.4144e-06	10921
bin	4.4856e-06	9925
bin	4.5568e-06	9061
bin	4.628e-06	14873
bin	4.6992e-06	9690
bin	4.7704e-06	11613
bin	4.8416e-06	13150
bin	4.9128e-06	8898
bin	4.984e-06	8992
bin	5.0552e-06	8856
bin	5.1264e-06	12835
bin	5.1976e-06	8508
bin	5.2688e-06	8875
bin	5.34e-06	8632
bin	5.4112e-06	12664
bin	5.4824e-06	8567
bin	5.5536e-06	8612
bin	5.6248e-06	13029
bin	5.696e-06	8664
bin	5.7672e-06	8782
bin	5.8384e-06	8925
bin	5.9096e-06	15253
bin	5.9808e-06	8864
bin	6.052e-06	9060
bin	6.1232e-06	9088
bin	6.1944e-06	13158
bin	6.2656e-06	9193
bin	6.3368e-06	9017
bin	6.408e-06	13241
bin	6.4792e-06	9008
bin	6.5504e-06	9142
bin	6.6216e-06	9027
bin	6.6928e-06	13393
bin	6.764e-06	8772
bin	6.8352e-06	8814
bin	6.9064e-06	9062
bin	6.9776e-06	12972
bin	7.0488e-06	8903
bin	7.12e-06	8613
bin	7.1912e-06	12999
bin	7.2624e-06	8689
bin	7.3336e-06	8914
bin	7.4048e-06	8732
bin	7.476e-06	12839
bin	7.5472e-06	8744
bin	7.6184e-06	8719
bin	7.6896e-06	8860
bin	7.7608e-06	12663
bin	7.832e-06	8828
bin	7.9032e-06	8478
bin	7.9744e-06	12730
bin	8.0456e-06	8685
bin	8.1168e-06	8745
bin	8.188e-06	8682
bin	8.2592e-06	11128
bin	8.3304e-06	8870
bin	8.4016e-06	8802
bin	8.4728e-06	8739
bin	8.544e-06	12736
bin	8.6152e-06	8799
bin	8.6864e-06	8887
bin	8.7576e-06	13048
bin	8.8288e-06	8839
bin	8.9e-06	8889
bin	8.9712e-06	8979
bin	9.0424e-06	13216
bin	9.1136e-06	8914
bin	9.1848e-06	10949
bin	9.256e-06	8949
bin	9.3272e-06	11033
bin	9.3984e-06	8983
bin	9.4696e-06	8880
bin	9.5408e-06	13202
bin	9.612e-06	8862
bin	9.6832e-06	10958
bin	9.7544e-06	9057
bin	9.8256e-06	15310
bin	9.8968e-06	8988
bin	9.968e-06	9044
bin	1.00392e-05	9012
bin	1.01104e-05	9889
bin	1.01816e-05	11175
bin	1.02528e-05	9093
bin	1.0324e-05	13207
bin	1.03952e-05	8982
bin	1.04664e-05	10174
bin	1.05376e-05	9196
bin	1.06088e-05	12088
bin	1.068e-05	9104
bin	1.07512e-05	9021
bin	1.08224e-05	9045
bin	1.08936e-05	11187
bin	1.09648e-05	9071
bin	1.1036e-05	9023
bin	1.11072e-05	11337
bin	1.11784e-05	9211
bin	1.12496e-05	9313
bin	1.13208e-05	9186
bin	1.1392e-05	13499
bin	1.14632e-05	9257
bin	1.15344e-05	8927
bin	1.16056e-05	9032
bin	1.16768e-05	13231
bin	1.1748e-05	9296
bin	1.18192e-05	8932
bin	1.18904e-05	13178
bin	1.19616e-05	9093
bin	1.20328e-05	8966
bin	1.2104e-05	9124
bin	1.21752e-05	13154
bin	1.22464e-05	9065
bin	1.23176e-05	9040
bin	1.23888e-05	9267
bin	1.246e-05	13190
bin	1.25312e-05	9161
bin	1.26024e-05	9034
bin	1.26736e-05	11334
bin	1.27448e-05	8831
bin	1.2816e-05	9080
bin	1.28872e-05	9059
bin	1.29584e-05	9009
bin	1.30296e-05	9018
bin	1.31008e-05	8883
bin	1.3172e-05	9136
bin	1.32432e-05	9156
bin	1.33144e-05	9269
bin	1.33856e-05	9008
bin	1.34568e-05	9206
bin	1.3528e-05	9051
bin	1.35992e-05	9257
bin	1.36704e-05	9067
bin	1.37416e-05	9268
bin	1.38128e-05	9190
bin	1.3884e-05	9119
bin	1.39552e-05	9232
bin	1.40264e-05	9107
bin	1.40976e-05	9245
bin	1.41688e-05	9000
bin	1.424e-05	9395
bin	1.43112e-05	9176
bin	1.43824e-05	9291
bin	1.44536e-05	9230
bin	1.45248e-05	9329
bin	1.4596e-05	9248
bin	1.46672e-05	9426
bin	1.47384e-05	9250
bin	1.48096e-05	9217
bin	1.48808e-05	9255
bin	1.4952e-05	9221
bin	1.50232e-05	9319
bin	1.50944e-05	9184
bin	1.51656e-05	9356
bin	1.52368e-05	9227
bin	1.5308e-05	9095
bin	1.53792e-05	9111
bin	1.54504e-05	9030
bin	1.55216e-05	9277
bin	1.55928e-05	9078
bin	1.5664e-05	9187
bin	1.57352e-05	8931
bin	1.58064e-05	9215
bin	1.58776e-05	8975
bin	1.59488e-05	9133
bin	1.602e-05	9007
bin	1.60912e-05	9194
bin	1.61624e-05	9134
bin	1.62336e-05	9003
bin	1.63048e-05	9424
bin	1.6376e-05	9069
bin	1.64472e-05	9371
bin	1.65184e-05	8813
bin	1.65896e-05	9166
bin	1.66608e-05	8967
bin	1.6732e-05	9079
bin	1.68032e-05	9146
bin	1.68744e-05	9178
bin	1.69456e-05	9179
bin	1.70168e-05	9228
bin	1.7088e-05	9226
bin	1.71592e-05	9243
bin	1.72304e-05	9163
bin	1.73016e-05	9286
bin	1.73728e-05	9370
bin	1.7444e-05	9208
bin	1.75152e-05	9194
bin	1.75864e-05	9199
bin	1.76576e-05	9278
bin	1.77288e-05	9206
bin	1.78e-05	8993
bin	1.78712e-05	9258
bin	1.79424e-05	8989
bin	1.80136e-05	9272
bin	1.80848e-05	8986
bin	1.8156e-05	9447
bin	1.82272e-05	9195
bin	1.82984e-05	9221
bin	1.83696e-05	9115
bin	1.84408e-05	9227
bin	1.8512e-05	9081
bin	1.85832e-05	9161
bin	1.86544e-05	9338
bin	1.87256e-05	9135
bin	1.87968e-05	9174
bin	1.8868e-05	9053
bin	1.89392e-05	9256
bin	1.90104e-05	9125
bin	1.90816e-05	9062
bin	1.91528e-05	9130
bin	1.9224e-05	9160
bin	1.92952e-05	9176
bin	1.93664e-05	9055
bin	1.94376e-05	9144
bin	1.95088e-05	9236
bin	1.958e-05	9148
bin	1.96512e-05	9075
bin	1.97224e-05	9332
bin	1.97936e-05	9099
bin	1.98648e-05	9404
bin	1.9936e-05	9353
bin	2.00072e-05	9400
bin	2.00784e-05	9378
bin	2.01496e-05	9138
bin	2.02208e-05	9179
bin	2.0292e-05	9350
bin	2.03632e-05	9044
bin	2.04344e-05	9120
bin	2.05056e-05	9494
bin	2.05768e-05	9151
bin	2.0648e-05	9302
bin	2.07192e-05	9242
bin	2.07904e-05	9040
bin	2.08616e-05	9117
bin	2.09328e-05	9112
bin	2.1004e-05	9202
bin	2.10752e-05	9094
bin	2.11464e-05	9243
bin	2.12176e-05	9135
bin	2.12888e-05	9390
bin	2.136e-05	9120
bin	2.14312e-05	9235
bin	2.15024e-05	9311
bin	2.15736e-05	9421
bin	2.16448e-05	9471
bin	2.1716e-05	9265
bin	2.17872e-05	9357
bin	2.18584e-05	9463
bin	2.19296e-05	9356
bin	2.20008e-05	9079
bin	2.2072e-05	9369
bin	2.21432e-05	9101
bin	2.22144e-05	9174
bin	2.22856e-05	9250
bin	2.23568e-05	9296
bin	2.2428e-05	9155
bin	2.24992e-05	9246
bin	2.25704e-05	9115
bin	2.26416e-05	9357
bin	2.27128e-05	9000
bin	2.2784e-05	9096
bin	2.28552e-05	9291
bin	2.29264e-05	9198
bin	2.29976e-05	9031
bin	2.30688e-05	8992
bin	2.314e-05	9006
bin	2.32112e-05	9183
bin	2.32824e-05	9191
bin	2.33536e-05	9209
bin	2.34248e-05	9119
bin	2.3496e-05	9071
bin	2.35672e-05	9051
bin	2.36384e-05	9132
bin	2.37096e-05	9219
bin	2.37808e-05	9043
bin	2.3852e-05	8949
bin	2.39232e-05	9118
bin	2.39944e-05	9095
bin	2.40656e-05	9001
bin	2.41368e-05	9101
bin	2.4208e-05	9221
bin	2.42792e-05	9071
bin	2.43504e-05	9004
bin	2.44216e-05	9038
bin	2.44928e-05	8806
bin	2.4564e-05	8843
bin	2.46352e-05	8848
bin	2.47064e-05	8956
bin	2.47776e-05	8936
bin	2.48488e-05	8450
bin	2.492e-05	8916
bin	2.49912e-05	8832
bin	2.50624e-05	8719
bin	2.51336e-05	8511
bin	2.52048e-05	8932
bin	2.5276e-05	8717
bin	2.53472e-05	8606
bin	2.54184e-05	8469
bin	2.54896e-05	8665
bin	2.55608e-05	8528
bin	2.5632e-05	8467
bin	2.57032e-05	8702
bin	2.57744e-05	8444
bin	2.58456e-05	8530
bin	2.59168e-05	8180
bin	2.5988e-05	8433
bin	2.60592e-05	8445
bin	2.61304e-05	8250
bin	2.62016e-05	8316
bin	2.62728e-05	8498
bin	2.6344e-05	8399
bin	2.64152e-05	8103
bin	2.64864e-05	8147
bin	2.65576e-05	8181
bin	2.66288e-05	8044
bin	2.67e-05	8009
bin	2.67712e-05	8128
bin	2.68424e-05	8004
bin	2.69136e-05	7842
bin	2.69848e-05	7930
bin	2.7056e-05	8133
bin	2.71272e-05	8015
bin	2.71984e-05	7885
bin	2.72696e-05	7738
bin	2.73408e-05	7809
bin	2.7412e-05	7767
bin	2.74832e-05	7570
bin	2.75544e-05	7990
bin	2.76256e-05	7590
bin	2.76968e-05	7529
bin	2.7768e-05	7625
bin	2.78392e-05	7630
bin	2.79104e-05	7528
bin	2.79816e-05	7517
bin	2.80528e-05	7523
bin	2.8124e-05	7394
bin	2.81952e-05	7429
bin	2.82664e-05	7256
bin	2.83376e-05	7513
bin	2.84088e-05	7205
bin	2.848e-05	7301
bin	2.85512e-05	7240
bin	2.86224e-05	7368
bin	2.86936e-05	7089
bin	2.87648e-05	7080
bin	2.8836e-05	7058
bin	2.89072e-05	7147
bin	2.89784e-05	6884
bin	2.90496e-05	6940
bin	2.91208e-05	7248
bin	2.9192e-05	6961
bin	2.92632e-05	6895
bin	2.93344e-05	6829
bin	2.94056e-05	6881
bin	2.94768e-05	6779
bin	2.9548e-05	6773
bin	2.96192e-05	6940
bin	2.96904e-05	6995
bin	2.97616e-05	6879
bin	2.98328e-05	6758
bin	2.9904e-05	6922
bin	2.99752e-05	6834
bin	3.00464e-05	6761
bin	3.01176e-05	6695
bin	3.01888e-05	6980
bin	3.026e-05	6811
bin	3.03312e-05	6614
bin	3.04024e-05	6681
bin	3.04736e-05	6653
bin	3.05448e-05	6617
bin	3.0616e-05	6482
bin	3.06872e-05	6680
bin	3.07584e-05	6441
bin	3.08296e-05	6476
bin	3.09008e-05	6499
bin	3.0972e-05	6647
bin	3.10432e-05	6498
bin	3.11144e-05	6273
bin	3.11856e-05	6471
bin	3.12568e-05	6402
bin	3.1328e-05	6292
bin	3.13992e-05	6267
bin	3.14704e-05	6566
bin	3.15416e-05	6319
bin	3.16128e-05	6313
bin	3.1684e-05	6219
bin	3.17552e-05	6218
bin	3.18264e-05	6154
bin	3.18976e-05	6044
bin	3.19688e-05	6085
bin	3.204e-05	6204
bin	3.21112e-05	5936
bin	3.21824e-05	6037
bin	3.22536e-05	6038
bin	3.23248e-05	5913
bin	3.2396e-05	5869
bin	3.24672e-05	6027
bin	3.25384e-05	5885
bin	3.26096e-05	5887
bin	3.26808e-05	5697
bin	3.2752e-05	5705
bin	3.28232e-05	5839
bin	3.28944e-05	5755
bin	3.29656e-05	5783
bin	3.30368e-05	5741
bin	3.3108e-05	5746
bin	3.31792e-05	5621
bin	3.32504e-05	5619
bin	3.33216e-05	5571
bin	3.33928e-05	5602
bin	3.3464e-05	5417
bin	3.35352e-05	5337
bin	3.36064e-05	5560
bin	3.36776e-05	5343
bin	3.37488e-05	5206
bin	3.382e-05	5452
bin	3.38912e-05	5311
bin	3.39624e-05	5223
bin	3.40336e-05	5184
bin	3.41048e-05	5224
bin	3.4176e-05	5393
bin	3.42472e-05	5073
bin	3.43184e-05	5226
bin	3.43896e-05	5212
bin	3.44608e-05	5000
bin	3.4532e-05	4974
bin	3.46032e-05	5188
bin	3.46744e-05	5032
bin	3.47456e-05	4896
bin	3.48168e-05	5063
bin	3.4888e-05	5072
bin	3.49592e-05	4954
bin	3.50304e-05	4810
bin	3.51016e-05	4955
bin	3.51728e-05	5016
bin	3.5244e-05	4811
bin	3.53152e-05	4702
bin	3.53864e-05	4869
bin	3.54576e-05	4845
bin	3.55288e-05	4818
bin	3.56e-05	1854090
statistic Torus3d_bub.timer 	"Life Times"
field count 6291456
field mean 0.00018223971506552
field stddev 0.00012194414106612
field sum 1146.5531487872
field sqrsum 0.30250380510479
field min 5.50475539e-07
field max 0.000818595427842
bin	-INF	0
bin	0	4598
bin	8.544e-07	20811
bin	1.7088e-06	30014
bin	2.5632e-06	23262
bin	3.4176e-06	20716
bin	4.272e-06	28441
bin	5.1264e-06	31023
bin	5.9808e-06	27111
bin	6.8352e-06	22483
bin	7.6896e-06	29318
bin	8.544e-06	27681
bin	9.3984e-06	25253
bin	1.02528e-05	31479
bin	1.11072e-05	37421
bin	1.19616e-05	41153
bin	1.2816e-05	20359
bin	1.36704e-05	22693
bin	1.45248e-05	21091
bin	1.53792e-05	24822
bin	1.62336e-05	27413
bin	1.7088e-05	25151
bin	1.79424e-05	24399
bin	1.87968e-05	23019
bin	1.96512e-05	27432
bin	2.05056e-05	22995
bin	2.136e-05	19212
bin	2.22144e-05	19446
bin	2.30688e-05	18404
bin	2.39232e-05	18149
bin	2.47776e-05	17794
bin	2.5632e-05	18470
bin	2.64864e-05	19724
bin	2.73408e-05	18028
bin	2.81952e-05	16772
bin	2.90496e-05	14517
bin	2.9904e-05	14454
bin	3.07584e-05	13786
bin	3.16128e-05	13468
bin	3.24672e-05	13759
bin	3.33216e-05	13497
bin	3.4176e-05	13842
bin	3.50304e-05	13586
bin	3.58848e-05	13811
bin	3.67392e-05	13847
bin	3.75936e-05	13770
bin	3.8448e-05	13821
bin	3.93024e-05	13951
bin	4.01568e-05	13491
bin	4.10112e-05	13310
bin	4.18656e-05	13607
bin	4.272e-05	13697
bin	4.35744e-05	13904
bin	4.44288e-05	13757
bin	4.52832e-05	14040
bin	4.61376e-05	14031
bin	4.6992e-05	13791
bin	4.78464e-05	13960
bin	4.87008e-05	13989
bin	4.95552e-05	14323
bin	5.04096e-05	14153
bin	5.1264e-05	13996
bin	5.21184e-05	14405
bin	5.29728e-05	14511
bin	5.38272e-05	14190
bin	5.46816e-05	14345
bin	5.5536e-05	14032
bin	5.63904e-05	14164
bin	5.72448e-05	14115
bin	5.80992e-05	13967
bin	5.89536e-05	13894
bin	5.9808e-05	13714
bin	6.06624e-05	13843
bin	6.15168e-05	13521
bin	6.23712e-05	13379
bin	6.32256e-05	13456
bin	6.408e-05	13363
bin	6.49344e-05	13252
bin	6.57888e-05	13512
bin	6.66432e-05	13415
bin	6.74976e-05	13316
bin	6.8352e-05	13634
bin	6.92064e-05	13621
bin	7.00608e-05	13528
bin	7.09152e-05	13485
bin	7.17696e-05	13526
bin	7.2624e-05	13689
bin	7.34784e-05	13407
bin	7.43328e-05	13498
bin	7.51872e-05	13597
bin	7.60416e-05	13303
bin	7.6896e-05	13350
bin	7.77504e-05	13340
bin	7.86048e-05	13542
bin	7.94592e-05	13482
bin	8.03136e-05	13084
bin	8.1168e-05	13229
bin	8.20224e-05	13467
bin	8.28768e-05	13469
bin	8.37312e-05	13591
bin	8.45856e-05	13315
bin	8.544e-05	13648
bin	8.62944e-05	13665
bin	8.71488e-05	13699
bin	8.80032e-05	13797
bin	8.88576e-05	13515
bin	8.9712e-05	13449
bin	9.05664e-05	13719
bin	9.14208e-05	13516
bin	9.22752e-05	13395
bin	9.31296e-05	13311
bin	9.3984e-05	13503
bin	9.48384e-05	13141
bin	9.56928e-05	13176
bin	9.65472e-05	13296
bin	9.74016e-05	13246
bin	9.8256e-05	13242
bin	9.91104e-05	13062
bin	9.99648e-05	13123
bin	0.0001008192	13148
bin	0.0001016736	13016
bin	0.000102528	12986
bin	0.0001033824	13074
bin	0.0001042368	13066
bin	0.0001050912	13038
bin	0.0001059456	13205
bin	0.0001068	13123
bin	0.0001076544	13223
bin	0.0001085088	13292
bin	0.0001093632	13370
bin	0.0001102176	13504
bin	0.000111072	13179
bin	0.0001119264	13323
bin	0.0001127808	13699
bin	0.0001136352	13679
bin	0.0001144896	13637
bin	0.000115344	13201
bin	0.0001161984	13544
bin	0.0001170528	13681
bin	0.0001179072	13604
bin	0.0001187616	13580
bin	0.000119616	13698
bin	0.0001204704	13732
bin	0.0001213248	13576
bin	0.0001221792	13638
bin	0.0001230336	13422
bin	0.000123888	13514
bin	0.0001247424	13462
bin	0.0001255968	13725
bin	0.0001264512	13735
bin	0.0001273056	13448
bin	0.00012816	13760
bin	0.0001290144	13579
bin	0.0001298688	13615
bin	0.0001307232	13618
bin	0.0001315776	13619
bin	0.000132432	13526
bin	0.0001332864	13703
bin	0.0001341408	13833
bin	0.0001349952	13880
bin	0.0001358496	14066
bin	0.000136704	14021
bin	0.0001375584	14052
bin	0.0001384128	13773
bin	0.0001392672	13958
bin	0.0001401216	13832
bin	0.000140976	13800
bin	0.0001418304	13744
bin	0.0001426848	13819
bin	0.0001435392	13739
bin	0.0001443936	13825
bin	0.000145248	13957
bin	0.0001461024	13847
bin	0.0001469568	14021
bin	0.0001478112	14059
bin	0.0001486656	14041
bin	0.00014952	14208
bin	0.0001503744	14053
bin	0.0001512288	14162
bin	0.0001520832	14232
bin	0.0001529376	14140
bin	0.000153792	14004
bin	0.0001546464	13997
bin	0.0001555008	13794
bin	0.0001563552	14103
bin	0.0001572096	13962
bin	0.000158064	14016
bin	0.0001589184	14081
bin	0.0001597728	13970
bin	0.0001606272	13902
bin	0.0001614816	13909
bin	0.000162336	13897
bin	0.0001631904	14151
bin	0.0001640448	13904
bin	0.0001648992	13982
bin	0.0001657536	13800
bin	0.000166608	13832
bin	0.0001674624	13940
bin	0.0001683168	13810
bin	0.0001691712	14075
bin	0.0001700256	13936
bin	0.00017088	14113
bin	0.0001717344	14021
bin	0.0001725888	14133
bin	0.0001734432	14263
bin	0.0001742976	14004
bin	0.000175152	14061
bin	0.0001760064	14069
bin	0.0001768608	13940
bin	0.0001777152	14094
bin	0.0001785696	13961
bin	0.000179424	14131
bin	0.0001802784	13985
bin	0.0001811328	14024
bin	0.0001819872	14106
bin	0.0001828416	13950
bin	0.000183696	13760
bin	0.0001845504	13914
bin	0.0001854048	13910
bin	0.0001862592	14241
bin	0.0001871136	14134
bin	0.000187968	14174
bin	0.0001888224	14054
bin	0.0001896768	14288
bin	0.0001905312	14171
bin	0.0001913856	13994
bin	0.00019224	14228
bin	0.0001930944	14358
bin	0.0001939488	14211
bin	0.0001948032	13922
bin	0.0001956576	14188
bin	0.000196512	14257
bin	0.0001973664	14225
bin	0.0001982208	14117
bin	0.0001990752	14288
bin	0.0001999296	14070
bin	0.000200784	14008
bin	0.0002016384	14035
bin	0.0002024928	14162
bin	0.0002033472	14056
bin	0.0002042016	13979
bin	0.000205056	13958
bin	0.0002059104	13858
bin	0.0002067648	13878
bin	0.0002076192	13931
bin	0.0002084736	13704
bin	0.000209328	13830
bin	0.0002101824	13931
bin	0.0002110368	13882
bin	0.0002118912	13921
bin	0.0002127456	13936
bin	0.0002136	13860
bin	0.0002144544	13872
bin	0.0002153088	13769
bin	0.0002161632	13893
bin	0.0002170176	13958
bin	0.000217872	13967
bin	0.0002187264	14008
bin	0.0002195808	13564
bin	0.0002204352	13718
bin	0.0002212896	13804
bin	0.000222144	13515
bin	0.0002229984	13595
bin	0.0002238528	13548
bin	0.0002247072	13586
bin	0.0002255616	13570
bin	0.000226416	13663
bin	0.0002272704	13367
bin	0.0002281248	13690
bin	0.0002289792	13442
bin	0.0002298336	13529
bin	0.000230688	13363
bin	0.0002315424	13419
bin	0.0002323968	13489
bin	0.0002332512	13346
bin	0.0002341056	13392
bin	0.00023496	13302
bin	0.0002358144	13351
bin	0.0002366688	13379
bin	0.0002375232	13326
bin	0.0002383776	13236
bin	0.000239232	13270
bin	0.0002400864	13308
bin	0.0002409408	13467
bin	0.0002417952	13461
bin	0.0002426496	13384
bin	0.000243504	13402
bin	0.0002443584	13283
bin	0.0002452128	13458
bin	0.0002460672	13331
bin	0.0002469216	13400
bin	0.000247776	13511
bin	0.0002486304	13259
bin	0.0002494848	12983
bin	0.0002503392	12860
bin	0.0002511936	13096
bin	0.000252048	13055
bin	0.0002529024	13096
bin	0.0002537568	12859
bin	0.0002546112	13019
bin	0.0002554656	13078
bin	0.00025632	13022
bin	0.0002571744	12937
bin	0.0002580288	12871
bin	0.0002588832	12856
bin	0.0002597376	12816
bin	0.000260592	12699
bin	0.0002614464	12908
bin	0.0002623008	12539
bin	0.0002631552	12832
bin	0.0002640096	12579
bin	0.000264864	12570
bin	0.0002657184	12620
bin	0.0002665728	12870
bin	0.0002674272	12807
bin	0.0002682816	12773
bin	0.000269136	12576
bin	0.0002699904	12899
bin	0.0002708448	12674
bin	0.0002716992	12644
bin	0.0002725536	12328
bin	0.000273408	12372
bin	0.0002742624	12334
bin	0.0002751168	12464
bin	0.0002759712	12445
bin	0.0002768256	12203
bin	0.00027768	12106
bin	0.0002785344	12292
bin	0.0002793888	12369
bin	0.0002802432	12422
bin	0.0002810976	12290
bin	0.000281952	12221
bin	0.0002828064	12409
bin	0.0002836608	12314
bin	0.0002845152	12392
bin	0.0002853696	12286
bin	0.000286224	12313
bin	0.0002870784	12447
bin	0.0002879328	12161
bin	0.0002887872	12481
bin	0.0002896416	12110
bin	0.000290496	12221
bin	0.0002913504	12127
bin	0.0002922048	12163
bin	0.0002930592	12122
bin	0.0002939136	12104
bin	0.000294768	11952
bin	0.0002956224	11794
bin	0.0002964768	11811
bin	0.0002973312	11830
bin	0.0002981856	11678
bin	0.00029904	11842
bin	0.0002998944	11603
bin	0.0003007488	11700
bin	0.0003016032	11766
bin	0.0003024576	11802
bin	0.000303312	11802
bin	0.0003041664	11642
bin	0.0003050208	11476
bin	0.0003058752	11343
bin	0.0003067296	11512
bin	0.000307584	11415
bin	0.0003084384	11572
bin	0.0003092928	11377
bin	0.0003101472	11382
bin	0.0003110016	11314
bin	0.000311856	11269
bin	0.0003127104	11163
bin	0.0003135648	11238
bin	0.0003144192	10915
bin	0.0003152736	11141
bin	0.000316128	11111
bin	0.0003169824	10793
bin	0.0003178368	10604
bin	0.0003186912	10624
bin	0.0003195456	10369
bin	0.0003204	10423
bin	0.0003212544	10188
bin	0.0003221088	10266
bin	0.0003229632	9972
bin	0.0003238176	10166
bin	0.000324672	10143
bin	0.0003255264	10223
bin	0.0003263808	10077
bin	0.0003272352	9808
bin	0.0003280896	9889
bin	0.000328944	9892
bin	0.0003297984	9657
bin	0.0003306528	9642
bin	0.0003315072	9606
bin	0.0003323616	9660
bin	0.000333216	9407
bin	0.0003340704	9458
bin	0.0003349248	9382
bin	0.0003357792	9321
bin	0.0003366336	9260
bin	0.000337488	9068
bin	0.0003383424	9085
bin	0.0003391968	8850
bin	0.0003400512	8844
bin	0.0003409056	8734
bin	0.00034176	8715
bin	0.0003426144	8552
bin	0.0003434688	8406
bin	0.0003443232	8389
bin	0.0003451776	8385
bin	0.000346032	8236
bin	0.0003468864	8265
bin	0.0003477408	8175
bin	0.0003485952	8182
bin	0.0003494496	7925
bin	0.000350304	7868
bin	0.0003511584	7889
bin	0.0003520128	7734
bin	0.0003528672	7591
bin	0.0003537216	7593
bin	0.000354576	7582
bin	0.0003554304	7485
bin	0.0003562848	7547
bin	0.0003571392	7350
bin	0.0003579936	7255
bin	0.000358848	7231
bin	0.0003597024	7152
bin	0.0003605568	7075
bin	0.0003614112	6944
bin	0.0003622656	6939
bin	0.00036312	6942
bin	0.0003639744	6854
bin	0.0003648288	6798
bin	0.0003656832	6720
bin	0.0003665376	6645
bin	0.000367392	6658
bin	0.0003682464	6408
bin	0.0003691008	6394
bin	0.0003699552	6435
bin	0.0003708096	6422
bin	0.000371664	6195
bin	0.0003725184	6098
bin	0.0003733728	6074
bin	0.0003742272	6053
bin	0.0003750816	6047
bin	0.000375936	5886
bin	0.0003767904	6004
bin	0.0003776448	5794
bin	0.0003784992	5922
bin	0.0003793536	5754
bin	0.000380208	5701
bin	0.0003810624	5626
bin	0.0003819168	5451
bin	0.0003827712	5446
bin	0.0003836256	5389
bin	0.00038448	5241
bin	0.0003853344	5138
bin	0.0003861888	5214
bin	0.0003870432	5060
bin	0.0003878976	5020
bin	0.000388752	4911
bin	0.0003896064	4836
bin	0.0003904608	4761
bin	0.0003913152	4756
bin	0.0003921696	4642
bin	0.000393024	4751
bin	0.0003938784	4460
bin	0.0003947328	4431
bin	0.0003955872	4538
bin	0.0003964416	4436
bin	0.000397296	4398
bin	0.0003981504	4278
bin	0.0003990048	4278
bin	0.0003998592	4265
bin	0.0004007136	4262
bin	0.000401568	4188
bin	0.0004024224	4053
bin	0.0004032768	4053
bin	0.0004041312	3907
bin	0.0004049856	3906
bin	0.00040584	3806
bin	0.0004066944	3691
bin	0.0004075488	3783
bin	0.0004084032	3604
bin	0.0004092576	3530
bin	0.000410112	3566
bin	0.0004109664	3524
bin	0.0004118208	3431
bin	0.0004126752	3437
bin	0.0004135296	3375
bin	0.000414384	3360
bin	0.0004152384	3245
bin	0.0004160928	3138
bin	0.0004169472	3186
bin	0.0004178016	3081
bin	0.000418656	3028
bin	0.0004195104	2896
bin	0.0004203648	2879
bin	0.0004212192	2801
bin	0.0004220736	2820
bin	0.000422928	2744
bin	0.0004237824	2754
bin	0.0004246368	2638
bin	0.0004254912	2691
bin	0.0004263456	2605
bin	0.0004272	152483
