version 2
run Butterfly-63-20120709-11:47:14-22813
attr alg 3
attr buf 8
attr configname Butterfly
attr datetime 20120709-11:47:14
attr delta 0.8
attr experiment Butterfly
attr ext true
attr inifile altro.ini
attr iterationvars "$buf=8, $ext=true, $ofedge=2, $delta=0.8, $alg=3"
attr iterationvars2 "$buf=8, $ext=true, $ofedge=2, $delta=0.8, $alg=3, $repetition=0"
attr measurement "$buf=8, $ext=true, $ofedge=2, $delta=0.8, $alg=3"
attr network Torus3d_bub
attr ofedge 2
attr processid 22813
attr repetition 0
attr replication #0
attr resultdir altro-results
attr runnumber 63
attr seedset 63

scalar . 	alg 	3
scalar . 	buf 	8
scalar . 	delta 	0.8
scalar . 	ofedge 	2
scalar Torus3d_bub.timer 	#endTime 	0.001070213665034
scalar Torus3d_bub.timer 	#totalHops 	45040144
scalar Torus3d_bub.timer 	#totalPacks 	6291456
scalar Torus3d_bub.timer 	#totalDerouted 	4311640
scalar Torus3d_bub.timer 	#totalOutFlanked 	4098876
scalar Torus3d_bub.timer 	#totalCQRed 	212764
scalar Torus3d_bub.timer 	#LB 	0.000786432
scalar Torus3d_bub.timer 	#ratio 	0.73483644032429
statistic Torus3d_bub.timer 	"Hop Times"
field count 6291456
field mean 6.1552965705914e-06
field stddev 7.5674921418665e-06
field sum 38.725777540827
field sqrsum 0.00059866100480959
field min 4.09666558e-07
field max 0.000271706665557
bin	-INF	0
bin	0	0
bin	7.12e-08	0
bin	1.424e-07	0
bin	2.136e-07	0
bin	2.848e-07	0
bin	3.56e-07	4
bin	4.272e-07	8355
bin	4.984e-07	12638
bin	5.696e-07	13995
bin	6.408e-07	25672
bin	7.12e-07	35667
bin	7.832e-07	27697
bin	8.544e-07	33621
bin	9.256e-07	46059
bin	9.968e-07	34523
bin	1.068e-06	35310
bin	1.1392e-06	50388
bin	1.2104e-06	54101
bin	1.2816e-06	41707
bin	1.3528e-06	55827
bin	1.424e-06	52836
bin	1.4952e-06	69102
bin	1.5664e-06	59796
bin	1.6376e-06	75602
bin	1.7088e-06	79327
bin	1.78e-06	82065
bin	1.8512e-06	80831
bin	1.9224e-06	88208
bin	1.9936e-06	102694
bin	2.0648e-06	92505
bin	2.136e-06	91531
bin	2.2072e-06	84311
bin	2.2784e-06	101677
bin	2.3496e-06	83514
bin	2.4208e-06	89234
bin	2.492e-06	97072
bin	2.5632e-06	95598
bin	2.6344e-06	84585
bin	2.7056e-06	89531
bin	2.7768e-06	91623
bin	2.848e-06	81136
bin	2.9192e-06	81846
bin	2.9904e-06	77851
bin	3.0616e-06	85382
bin	3.1328e-06	69629
bin	3.204e-06	69150
bin	3.2752e-06	76369
bin	3.3464e-06	63725
bin	3.4176e-06	63902
bin	3.4888e-06	59941
bin	3.56e-06	67023
bin	3.6312e-06	58180
bin	3.7024e-06	55816
bin	3.7736e-06	54421
bin	3.8448e-06	67208
bin	3.916e-06	49282
bin	3.9872e-06	49024
bin	4.0584e-06	55109
bin	4.1296e-06	46067
bin	4.2008e-06	47132
bin	4.272e-06	45123
bin	4.3432e-06	51691
bin	4.4144e-06	41679
bin	4.4856e-06	40941
bin	4.5568e-06	39070
bin	4.628e-06	46580
bin	4.6992e-06	36776
bin	4.7704e-06	38444
bin	4.8416e-06	42532
bin	4.9128e-06	35271
bin	4.984e-06	33393
bin	5.0552e-06	34173
bin	5.1264e-06	40765
bin	5.1976e-06	32055
bin	5.2688e-06	31344
bin	5.34e-06	29968
bin	5.4112e-06	37488
bin	5.4824e-06	28901
bin	5.5536e-06	27850
bin	5.6248e-06	34284
bin	5.696e-06	27496
bin	5.7672e-06	25815
bin	5.8384e-06	26006
bin	5.9096e-06	34402
bin	5.9808e-06	24572
bin	6.052e-06	25008
bin	6.1232e-06	23817
bin	6.1944e-06	30883
bin	6.2656e-06	23760
bin	6.3368e-06	23951
bin	6.408e-06	29830
bin	6.4792e-06	24070
bin	6.5504e-06	22704
bin	6.6216e-06	23371
bin	6.6928e-06	29947
bin	6.764e-06	22038
bin	6.8352e-06	23892
bin	6.9064e-06	22238
bin	6.9776e-06	28737
bin	7.0488e-06	20914
bin	7.12e-06	20778
bin	7.1912e-06	26564
bin	7.2624e-06	20512
bin	7.3336e-06	19512
bin	7.4048e-06	19297
bin	7.476e-06	25514
bin	7.5472e-06	18109
bin	7.6184e-06	18664
bin	7.6896e-06	17193
bin	7.7608e-06	23385
bin	7.832e-06	15698
bin	7.9032e-06	15296
bin	7.9744e-06	20585
bin	8.0456e-06	14519
bin	8.1168e-06	13149
bin	8.188e-06	13375
bin	8.2592e-06	17214
bin	8.3304e-06	12498
bin	8.4016e-06	13392
bin	8.4728e-06	12005
bin	8.544e-06	18391
bin	8.6152e-06	11655
bin	8.6864e-06	11806
bin	8.7576e-06	16819
bin	8.8288e-06	11415
bin	8.9e-06	10615
bin	8.9712e-06	10970
bin	9.0424e-06	16690
bin	9.1136e-06	10115
bin	9.1848e-06	12390
bin	9.256e-06	9891
bin	9.3272e-06	14159
bin	9.3984e-06	10021
bin	9.4696e-06	10492
bin	9.5408e-06	15362
bin	9.612e-06	10709
bin	9.6832e-06	9879
bin	9.7544e-06	12747
bin	9.8256e-06	18257
bin	9.8968e-06	10002
bin	9.968e-06	10421
bin	1.00392e-05	10037
bin	1.01104e-05	14318
bin	1.01816e-05	10373
bin	1.02528e-05	12830
bin	1.0324e-05	15703
bin	1.03952e-05	13309
bin	1.04664e-05	9644
bin	1.05376e-05	12826
bin	1.06088e-05	13740
bin	1.068e-05	9781
bin	1.07512e-05	10044
bin	1.08224e-05	9378
bin	1.08936e-05	13098
bin	1.09648e-05	9295
bin	1.1036e-05	9365
bin	1.11072e-05	12166
bin	1.11784e-05	9640
bin	1.12496e-05	8292
bin	1.13208e-05	9221
bin	1.1392e-05	14336
bin	1.14632e-05	10429
bin	1.15344e-05	8410
bin	1.16056e-05	8035
bin	1.16768e-05	13734
bin	1.1748e-05	7658
bin	1.18192e-05	9918
bin	1.18904e-05	12808
bin	1.19616e-05	8108
bin	1.20328e-05	6773
bin	1.2104e-05	11631
bin	1.21752e-05	12343
bin	1.22464e-05	6871
bin	1.23176e-05	6396
bin	1.23888e-05	8347
bin	1.246e-05	11283
bin	1.25312e-05	7975
bin	1.26024e-05	5937
bin	1.26736e-05	10658
bin	1.27448e-05	8286
bin	1.2816e-05	5075
bin	1.28872e-05	5714
bin	1.29584e-05	5657
bin	1.30296e-05	5107
bin	1.31008e-05	5118
bin	1.3172e-05	4904
bin	1.32432e-05	5471
bin	1.33144e-05	4700
bin	1.33856e-05	4952
bin	1.34568e-05	5083
bin	1.3528e-05	5125
bin	1.35992e-05	4398
bin	1.36704e-05	4840
bin	1.37416e-05	4897
bin	1.38128e-05	4685
bin	1.3884e-05	4523
bin	1.39552e-05	4420
bin	1.40264e-05	4893
bin	1.40976e-05	4285
bin	1.41688e-05	4365
bin	1.424e-05	4375
bin	1.43112e-05	4470
bin	1.43824e-05	3922
bin	1.44536e-05	4313
bin	1.45248e-05	4189
bin	1.4596e-05	4088
bin	1.46672e-05	3873
bin	1.47384e-05	3924
bin	1.48096e-05	4303
bin	1.48808e-05	3804
bin	1.4952e-05	3849
bin	1.50232e-05	3996
bin	1.50944e-05	3766
bin	1.51656e-05	3473
bin	1.52368e-05	3605
bin	1.5308e-05	3781
bin	1.53792e-05	3478
bin	1.54504e-05	3377
bin	1.55216e-05	3132
bin	1.55928e-05	3429
bin	1.5664e-05	2975
bin	1.57352e-05	2823
bin	1.58064e-05	2979
bin	1.58776e-05	2817
bin	1.59488e-05	2597
bin	1.602e-05	2512
bin	1.60912e-05	2780
bin	1.61624e-05	2551
bin	1.62336e-05	2259
bin	1.63048e-05	2294
bin	1.6376e-05	2464
bin	1.64472e-05	2123
bin	1.65184e-05	2138
bin	1.65896e-05	2271
bin	1.66608e-05	2011
bin	1.6732e-05	1942
bin	1.68032e-05	1848
bin	1.68744e-05	2166
bin	1.69456e-05	2024
bin	1.70168e-05	1870
bin	1.7088e-05	1759
bin	1.71592e-05	2145
bin	1.72304e-05	1718
bin	1.73016e-05	1790
bin	1.73728e-05	1987
bin	1.7444e-05	1811
bin	1.75152e-05	1765
bin	1.75864e-05	1704
bin	1.76576e-05	1975
bin	1.77288e-05	1779
bin	1.78e-05	1843
bin	1.78712e-05	1612
bin	1.79424e-05	2028
bin	1.80136e-05	1712
bin	1.80848e-05	1715
bin	1.8156e-05	1874
bin	1.82272e-05	1727
bin	1.82984e-05	1698
bin	1.83696e-05	1534
bin	1.84408e-05	1836
bin	1.8512e-05	1762
bin	1.85832e-05	1669
bin	1.86544e-05	1537
bin	1.87256e-05	1970
bin	1.87968e-05	1640
bin	1.8868e-05	1577
bin	1.89392e-05	1787
bin	1.90104e-05	1565
bin	1.90816e-05	1644
bin	1.91528e-05	1473
bin	1.9224e-05	1860
bin	1.92952e-05	1751
bin	1.93664e-05	1552
bin	1.94376e-05	1491
bin	1.95088e-05	1874
bin	1.958e-05	1567
bin	1.96512e-05	1560
bin	1.97224e-05	1702
bin	1.97936e-05	1531
bin	1.98648e-05	1581
bin	1.9936e-05	1382
bin	2.00072e-05	1630
bin	2.00784e-05	1556
bin	2.01496e-05	1471
bin	2.02208e-05	1339
bin	2.0292e-05	1709
bin	2.03632e-05	1435
bin	2.04344e-05	1368
bin	2.05056e-05	1487
bin	2.05768e-05	1436
bin	2.0648e-05	1443
bin	2.07192e-05	1303
bin	2.07904e-05	1518
bin	2.08616e-05	1372
bin	2.09328e-05	1345
bin	2.1004e-05	1261
bin	2.10752e-05	1589
bin	2.11464e-05	1320
bin	2.12176e-05	1362
bin	2.12888e-05	1459
bin	2.136e-05	1350
bin	2.14312e-05	1394
bin	2.15024e-05	1254
bin	2.15736e-05	1506
bin	2.16448e-05	1371
bin	2.1716e-05	1375
bin	2.17872e-05	1192
bin	2.18584e-05	1611
bin	2.19296e-05	1227
bin	2.20008e-05	1247
bin	2.2072e-05	1490
bin	2.21432e-05	1269
bin	2.22144e-05	1311
bin	2.22856e-05	1203
bin	2.23568e-05	1509
bin	2.2428e-05	1281
bin	2.24992e-05	1301
bin	2.25704e-05	1250
bin	2.26416e-05	1572
bin	2.27128e-05	1271
bin	2.2784e-05	1266
bin	2.28552e-05	1468
bin	2.29264e-05	1341
bin	2.29976e-05	1309
bin	2.30688e-05	1263
bin	2.314e-05	1524
bin	2.32112e-05	1444
bin	2.32824e-05	1402
bin	2.33536e-05	1281
bin	2.34248e-05	1544
bin	2.3496e-05	1240
bin	2.35672e-05	1312
bin	2.36384e-05	1512
bin	2.37096e-05	1327
bin	2.37808e-05	1327
bin	2.3852e-05	1151
bin	2.39232e-05	1504
bin	2.39944e-05	1298
bin	2.40656e-05	1313
bin	2.41368e-05	1161
bin	2.4208e-05	1453
bin	2.42792e-05	1187
bin	2.43504e-05	1198
bin	2.44216e-05	1367
bin	2.44928e-05	1160
bin	2.4564e-05	1196
bin	2.46352e-05	1089
bin	2.47064e-05	1346
bin	2.47776e-05	1210
bin	2.48488e-05	1079
bin	2.492e-05	1057
bin	2.49912e-05	1353
bin	2.50624e-05	1065
bin	2.51336e-05	1128
bin	2.52048e-05	1312
bin	2.5276e-05	1081
bin	2.53472e-05	1081
bin	2.54184e-05	995
bin	2.54896e-05	1280
bin	2.55608e-05	1130
bin	2.5632e-05	1080
bin	2.57032e-05	1062
bin	2.57744e-05	1291
bin	2.58456e-05	1030
bin	2.59168e-05	1055
bin	2.5988e-05	1253
bin	2.60592e-05	1040
bin	2.61304e-05	1053
bin	2.62016e-05	1021
bin	2.62728e-05	1141
bin	2.6344e-05	1080
bin	2.64152e-05	1013
bin	2.64864e-05	987
bin	2.65576e-05	1240
bin	2.66288e-05	1024
bin	2.67e-05	1048
bin	2.67712e-05	1201
bin	2.68424e-05	1071
bin	2.69136e-05	1038
bin	2.69848e-05	1030
bin	2.7056e-05	1163
bin	2.71272e-05	1147
bin	2.71984e-05	1047
bin	2.72696e-05	1054
bin	2.73408e-05	1257
bin	2.7412e-05	1034
bin	2.74832e-05	1010
bin	2.75544e-05	1241
bin	2.76256e-05	1059
bin	2.76968e-05	984
bin	2.7768e-05	977
bin	2.78392e-05	1193
bin	2.79104e-05	994
bin	2.79816e-05	1011
bin	2.80528e-05	1008
bin	2.8124e-05	1219
bin	2.81952e-05	1001
bin	2.82664e-05	1028
bin	2.83376e-05	1238
bin	2.84088e-05	1047
bin	2.848e-05	1027
bin	2.85512e-05	976
bin	2.86224e-05	1173
bin	2.86936e-05	961
bin	2.87648e-05	968
bin	2.8836e-05	1012
bin	2.89072e-05	1136
bin	2.89784e-05	980
bin	2.90496e-05	968
bin	2.91208e-05	1105
bin	2.9192e-05	976
bin	2.92632e-05	983
bin	2.93344e-05	904
bin	2.94056e-05	1112
bin	2.94768e-05	905
bin	2.9548e-05	865
bin	2.96192e-05	908
bin	2.96904e-05	982
bin	2.97616e-05	860
bin	2.98328e-05	878
bin	2.9904e-05	1019
bin	2.99752e-05	901
bin	3.00464e-05	897
bin	3.01176e-05	841
bin	3.01888e-05	1015
bin	3.026e-05	827
bin	3.03312e-05	862
bin	3.04024e-05	852
bin	3.04736e-05	951
bin	3.05448e-05	779
bin	3.0616e-05	761
bin	3.06872e-05	852
bin	3.07584e-05	824
bin	3.08296e-05	773
bin	3.09008e-05	776
bin	3.0972e-05	842
bin	3.10432e-05	735
bin	3.11144e-05	696
bin	3.11856e-05	793
bin	3.12568e-05	769
bin	3.1328e-05	706
bin	3.13992e-05	645
bin	3.14704e-05	764
bin	3.15416e-05	622
bin	3.16128e-05	587
bin	3.1684e-05	620
bin	3.17552e-05	725
bin	3.18264e-05	578
bin	3.18976e-05	509
bin	3.19688e-05	575
bin	3.204e-05	590
bin	3.21112e-05	466
bin	3.21824e-05	455
bin	3.22536e-05	549
bin	3.23248e-05	466
bin	3.2396e-05	435
bin	3.24672e-05	439
bin	3.25384e-05	498
bin	3.26096e-05	387
bin	3.26808e-05	377
bin	3.2752e-05	396
bin	3.28232e-05	437
bin	3.28944e-05	371
bin	3.29656e-05	341
bin	3.30368e-05	436
bin	3.3108e-05	375
bin	3.31792e-05	330
bin	3.32504e-05	354
bin	3.33216e-05	402
bin	3.33928e-05	315
bin	3.3464e-05	336
bin	3.35352e-05	339
bin	3.36064e-05	377
bin	3.36776e-05	306
bin	3.37488e-05	279
bin	3.382e-05	353
bin	3.38912e-05	317
bin	3.39624e-05	260
bin	3.40336e-05	285
bin	3.41048e-05	358
bin	3.4176e-05	291
bin	3.42472e-05	273
bin	3.43184e-05	288
bin	3.43896e-05	341
bin	3.44608e-05	284
bin	3.4532e-05	247
bin	3.46032e-05	341
bin	3.46744e-05	297
bin	3.47456e-05	275
bin	3.48168e-05	283
bin	3.4888e-05	293
bin	3.49592e-05	267
bin	3.50304e-05	260
bin	3.51016e-05	282
bin	3.51728e-05	297
bin	3.5244e-05	258
bin	3.53152e-05	262
bin	3.53864e-05	274
bin	3.54576e-05	272
bin	3.55288e-05	240
bin	3.56e-05	59287
statistic Torus3d_bub.timer 	"Life Times"
field count 6291456
field mean 3.558231716538e-05
field stddev 3.0674055369175e-05
field sum 223.86458282403
field sqrsum 0.013885235956111
field min 7.33331989e-07
field max 0.000575965332085
bin	-INF	0
bin	0	11853
bin	8.544e-07	62839
bin	1.7088e-06	108537
bin	2.5632e-06	103109
bin	3.4176e-06	94092
bin	4.272e-06	91990
bin	5.1264e-06	108311
bin	5.9808e-06	95666
bin	6.8352e-06	96169
bin	7.6896e-06	102353
bin	8.544e-06	110100
bin	9.3984e-06	101891
bin	1.02528e-05	106874
bin	1.11072e-05	112876
bin	1.19616e-05	105890
bin	1.2816e-05	89377
bin	1.36704e-05	93160
bin	1.45248e-05	94507
bin	1.53792e-05	104192
bin	1.62336e-05	107628
bin	1.7088e-05	108318
bin	1.79424e-05	120166
bin	1.87968e-05	115877
bin	1.96512e-05	122371
bin	2.05056e-05	128315
bin	2.136e-05	125856
bin	2.22144e-05	124971
bin	2.30688e-05	122775
bin	2.39232e-05	121748
bin	2.47776e-05	122276
bin	2.5632e-05	107375
bin	2.64864e-05	106960
bin	2.73408e-05	106285
bin	2.81952e-05	99710
bin	2.90496e-05	94865
bin	2.9904e-05	95137
bin	3.07584e-05	88869
bin	3.16128e-05	79263
bin	3.24672e-05	71892
bin	3.33216e-05	70131
bin	3.4176e-05	66308
bin	3.50304e-05	59832
bin	3.58848e-05	54905
bin	3.67392e-05	49118
bin	3.75936e-05	44628
bin	3.8448e-05	41450
bin	3.93024e-05	37893
bin	4.01568e-05	34957
bin	4.10112e-05	32041
bin	4.18656e-05	30789
bin	4.272e-05	29270
bin	4.35744e-05	28638
bin	4.44288e-05	28322
bin	4.52832e-05	28110
bin	4.61376e-05	28494
bin	4.6992e-05	29030
bin	4.78464e-05	29760
bin	4.87008e-05	29566
bin	4.95552e-05	29877
bin	5.04096e-05	30060
bin	5.1264e-05	30771
bin	5.21184e-05	31153
bin	5.29728e-05	31382
bin	5.38272e-05	31620
bin	5.46816e-05	31907
bin	5.5536e-05	32091
bin	5.63904e-05	32643
bin	5.72448e-05	32561
bin	5.80992e-05	32701
bin	5.89536e-05	32428
bin	5.9808e-05	32245
bin	6.06624e-05	32609
bin	6.15168e-05	32483
bin	6.23712e-05	31488
bin	6.32256e-05	29350
bin	6.408e-05	27977
bin	6.49344e-05	26791
bin	6.57888e-05	25806
bin	6.66432e-05	24219
bin	6.74976e-05	23458
bin	6.8352e-05	22652
bin	6.92064e-05	21144
bin	7.00608e-05	20309
bin	7.09152e-05	19597
bin	7.17696e-05	19148
bin	7.2624e-05	18347
bin	7.34784e-05	17809
bin	7.43328e-05	17564
bin	7.51872e-05	17916
bin	7.60416e-05	17860
bin	7.6896e-05	18073
bin	7.77504e-05	18395
bin	7.86048e-05	17924
bin	7.94592e-05	18247
bin	8.03136e-05	18395
bin	8.1168e-05	18730
bin	8.20224e-05	19034
bin	8.28768e-05	19226
bin	8.37312e-05	19267
bin	8.45856e-05	19811
bin	8.544e-05	19381
bin	8.62944e-05	19549
bin	8.71488e-05	19136
bin	8.80032e-05	18987
bin	8.88576e-05	18627
bin	8.9712e-05	18606
bin	9.05664e-05	18355
bin	9.14208e-05	17583
bin	9.22752e-05	17135
bin	9.31296e-05	16095
bin	9.3984e-05	14846
bin	9.48384e-05	13808
bin	9.56928e-05	13097
bin	9.65472e-05	11756
bin	9.74016e-05	10698
bin	9.8256e-05	9772
bin	9.91104e-05	9176
bin	9.99648e-05	8469
bin	0.0001008192	7936
bin	0.0001016736	7503
bin	0.000102528	7021
bin	0.0001033824	6576
bin	0.0001042368	6438
bin	0.0001050912	6314
bin	0.0001059456	6232
bin	0.0001068	6306
bin	0.0001076544	6143
bin	0.0001085088	6333
bin	0.0001093632	6303
bin	0.0001102176	6212
bin	0.000111072	6209
bin	0.0001119264	6393
bin	0.0001127808	6288
bin	0.0001136352	6055
bin	0.0001144896	5974
bin	0.000115344	6120
bin	0.0001161984	5941
bin	0.0001170528	5880
bin	0.0001179072	5781
bin	0.0001187616	5624
bin	0.000119616	5467
bin	0.0001204704	5219
bin	0.0001213248	5139
bin	0.0001221792	4924
bin	0.0001230336	4594
bin	0.000123888	4116
bin	0.0001247424	3875
bin	0.0001255968	3391
bin	0.0001264512	3057
bin	0.0001273056	2724
bin	0.00012816	2455
bin	0.0001290144	2230
bin	0.0001298688	1995
bin	0.0001307232	1781
bin	0.0001315776	1556
bin	0.000132432	1455
bin	0.0001332864	1388
bin	0.0001341408	1266
bin	0.0001349952	1215
bin	0.0001358496	1125
bin	0.000136704	1172
bin	0.0001375584	1166
bin	0.0001384128	1140
bin	0.0001392672	1133
bin	0.0001401216	1010
bin	0.000140976	1101
bin	0.0001418304	1061
bin	0.0001426848	1074
bin	0.0001435392	1153
bin	0.0001443936	1121
bin	0.000145248	1057
bin	0.0001461024	1139
bin	0.0001469568	1097
bin	0.0001478112	1061
bin	0.0001486656	1098
bin	0.00014952	1103
bin	0.0001503744	1068
bin	0.0001512288	1025
bin	0.0001520832	1035
bin	0.0001529376	1042
bin	0.000153792	1064
bin	0.0001546464	952
bin	0.0001555008	857
bin	0.0001563552	831
bin	0.0001572096	764
bin	0.000158064	661
bin	0.0001589184	655
bin	0.0001597728	587
bin	0.0001606272	561
bin	0.0001614816	473
bin	0.000162336	493
bin	0.0001631904	460
bin	0.0001640448	420
bin	0.0001648992	395
bin	0.0001657536	453
bin	0.000166608	437
bin	0.0001674624	453
bin	0.0001683168	432
bin	0.0001691712	419
bin	0.0001700256	427
bin	0.00017088	454
bin	0.0001717344	432
bin	0.0001725888	429
bin	0.0001734432	410
bin	0.0001742976	398
bin	0.000175152	411
bin	0.0001760064	393
bin	0.0001768608	411
bin	0.0001777152	407
bin	0.0001785696	430
bin	0.000179424	367
bin	0.0001802784	436
bin	0.0001811328	428
bin	0.0001819872	443
bin	0.0001828416	439
bin	0.000183696	416
bin	0.0001845504	397
bin	0.0001854048	368
bin	0.0001862592	361
bin	0.0001871136	318
bin	0.000187968	325
bin	0.0001888224	324
bin	0.0001896768	304
bin	0.0001905312	282
bin	0.0001913856	252
bin	0.00019224	274
bin	0.0001930944	261
bin	0.0001939488	277
bin	0.0001948032	259
bin	0.0001956576	269
bin	0.000196512	215
bin	0.0001973664	248
bin	0.0001982208	244
bin	0.0001990752	252
bin	0.0001999296	228
bin	0.000200784	269
bin	0.0002016384	298
bin	0.0002024928	290
bin	0.0002033472	274
bin	0.0002042016	256
bin	0.000205056	268
bin	0.0002059104	255
bin	0.0002067648	238
bin	0.0002076192	267
bin	0.0002084736	249
bin	0.000209328	247
bin	0.0002101824	228
bin	0.0002110368	206
bin	0.0002118912	238
bin	0.0002127456	252
bin	0.0002136	222
bin	0.0002144544	233
bin	0.0002153088	221
bin	0.0002161632	190
bin	0.0002170176	208
bin	0.000217872	176
bin	0.0002187264	141
bin	0.0002195808	151
bin	0.0002204352	125
bin	0.0002212896	109
bin	0.000222144	125
bin	0.0002229984	99
bin	0.0002238528	106
bin	0.0002247072	102
bin	0.0002255616	82
bin	0.000226416	84
bin	0.0002272704	83
bin	0.0002281248	90
bin	0.0002289792	79
bin	0.0002298336	99
bin	0.000230688	84
bin	0.0002315424	87
bin	0.0002323968	75
bin	0.0002332512	74
bin	0.0002341056	99
bin	0.00023496	82
bin	0.0002358144	87
bin	0.0002366688	76
bin	0.0002375232	65
bin	0.0002383776	78
bin	0.000239232	85
bin	0.0002400864	77
bin	0.0002409408	84
bin	0.0002417952	72
bin	0.0002426496	78
bin	0.000243504	79
bin	0.0002443584	57
bin	0.0002452128	76
bin	0.0002460672	48
bin	0.0002469216	54
bin	0.000247776	41
bin	0.0002486304	38
bin	0.0002494848	31
bin	0.0002503392	29
bin	0.0002511936	33
bin	0.000252048	27
bin	0.0002529024	33
bin	0.0002537568	24
bin	0.0002546112	19
bin	0.0002554656	20
bin	0.00025632	24
bin	0.0002571744	11
bin	0.0002580288	15
bin	0.0002588832	19
bin	0.0002597376	16
bin	0.000260592	20
bin	0.0002614464	15
bin	0.0002623008	14
bin	0.0002631552	10
bin	0.0002640096	9
bin	0.000264864	19
bin	0.0002657184	19
bin	0.0002665728	13
bin	0.0002674272	17
bin	0.0002682816	8
bin	0.000269136	15
bin	0.0002699904	14
bin	0.0002708448	15
bin	0.0002716992	22
bin	0.0002725536	14
bin	0.000273408	15
bin	0.0002742624	15
bin	0.0002751168	20
bin	0.0002759712	22
bin	0.0002768256	20
bin	0.00027768	21
bin	0.0002785344	14
bin	0.0002793888	8
bin	0.0002802432	16
bin	0.0002810976	16
bin	0.000281952	10
bin	0.0002828064	9
bin	0.0002836608	12
bin	0.0002845152	8
bin	0.0002853696	3
bin	0.000286224	7
bin	0.0002870784	7
bin	0.0002879328	7
bin	0.0002887872	4
bin	0.0002896416	6
bin	0.000290496	4
bin	0.0002913504	4
bin	0.0002922048	6
bin	0.0002930592	3
bin	0.0002939136	9
bin	0.000294768	9
bin	0.0002956224	12
bin	0.0002964768	5
bin	0.0002973312	5
bin	0.0002981856	4
bin	0.00029904	8
bin	0.0002998944	7
bin	0.0003007488	5
bin	0.0003016032	5
bin	0.0003024576	6
bin	0.000303312	7
bin	0.0003041664	11
bin	0.0003050208	8
bin	0.0003058752	9
bin	0.0003067296	4
bin	0.000307584	6
bin	0.0003084384	4
bin	0.0003092928	3
bin	0.0003101472	3
bin	0.0003110016	5
bin	0.000311856	6
bin	0.0003127104	7
bin	0.0003135648	6
bin	0.0003144192	5
bin	0.0003152736	3
bin	0.000316128	2
bin	0.0003169824	3
bin	0.0003178368	3
bin	0.0003186912	5
bin	0.0003195456	2
bin	0.0003204	2
bin	0.0003212544	3
bin	0.0003221088	1
bin	0.0003229632	0
bin	0.0003238176	3
bin	0.000324672	6
bin	0.0003255264	6
bin	0.0003263808	5
bin	0.0003272352	4
bin	0.0003280896	3
bin	0.000328944	2
bin	0.0003297984	1
bin	0.0003306528	4
bin	0.0003315072	4
bin	0.0003323616	2
bin	0.000333216	0
bin	0.0003340704	2
bin	0.0003349248	2
bin	0.0003357792	3
bin	0.0003366336	1
bin	0.000337488	1
bin	0.0003383424	6
bin	0.0003391968	1
bin	0.0003400512	3
bin	0.0003409056	2
bin	0.00034176	2
bin	0.0003426144	1
bin	0.0003434688	1
bin	0.0003443232	1
bin	0.0003451776	4
bin	0.000346032	2
bin	0.0003468864	2
bin	0.0003477408	0
bin	0.0003485952	0
bin	0.0003494496	0
bin	0.000350304	0
bin	0.0003511584	1
bin	0.0003520128	0
bin	0.0003528672	0
bin	0.0003537216	1
bin	0.000354576	1
bin	0.0003554304	1
bin	0.0003562848	2
bin	0.0003571392	0
bin	0.0003579936	0
bin	0.000358848	2
bin	0.0003597024	0
bin	0.0003605568	3
bin	0.0003614112	0
bin	0.0003622656	3
bin	0.00036312	0
bin	0.0003639744	1
bin	0.0003648288	2
bin	0.0003656832	1
bin	0.0003665376	1
bin	0.000367392	1
bin	0.0003682464	0
bin	0.0003691008	2
bin	0.0003699552	0
bin	0.0003708096	0
bin	0.000371664	1
bin	0.0003725184	0
bin	0.0003733728	0
bin	0.0003742272	0
bin	0.0003750816	0
bin	0.000375936	0
bin	0.0003767904	0
bin	0.0003776448	0
bin	0.0003784992	1
bin	0.0003793536	2
bin	0.000380208	0
bin	0.0003810624	0
bin	0.0003819168	0
bin	0.0003827712	1
bin	0.0003836256	0
bin	0.00038448	0
bin	0.0003853344	0
bin	0.0003861888	0
bin	0.0003870432	0
bin	0.0003878976	1
bin	0.000388752	1
bin	0.0003896064	1
bin	0.0003904608	0
bin	0.0003913152	0
bin	0.0003921696	0
bin	0.000393024	0
bin	0.0003938784	0
bin	0.0003947328	0
bin	0.0003955872	0
bin	0.0003964416	1
bin	0.000397296	0
bin	0.0003981504	0
bin	0.0003990048	0
bin	0.0003998592	1
bin	0.0004007136	0
bin	0.000401568	2
bin	0.0004024224	2
bin	0.0004032768	1
bin	0.0004041312	2
bin	0.0004049856	1
bin	0.00040584	0
bin	0.0004066944	0
bin	0.0004075488	0
bin	0.0004084032	0
bin	0.0004092576	1
bin	0.000410112	0
bin	0.0004109664	0
bin	0.0004118208	0
bin	0.0004126752	0
bin	0.0004135296	1
bin	0.000414384	0
bin	0.0004152384	1
bin	0.0004160928	2
bin	0.0004169472	3
bin	0.0004178016	1
bin	0.000418656	3
bin	0.0004195104	1
bin	0.0004203648	0
bin	0.0004212192	0
bin	0.0004220736	1
bin	0.000422928	0
bin	0.0004237824	0
bin	0.0004246368	0
bin	0.0004254912	0
bin	0.0004263456	1
bin	0.0004272	11
