version 2
run Butterfly-107-20120709-12:53:35-24141
attr alg 3
attr buf 8
attr configname Butterfly
attr datetime 20120709-12:53:35
attr delta 0.6
attr experiment Butterfly
attr ext false
attr inifile altro.ini
attr iterationvars "$buf=8, $ext=false, $ofedge=1, $delta=0.6, $alg=3"
attr iterationvars2 "$buf=8, $ext=false, $ofedge=1, $delta=0.6, $alg=3, $repetition=0"
attr measurement "$buf=8, $ext=false, $ofedge=1, $delta=0.6, $alg=3"
attr network Torus3d_bub
attr ofedge 1
attr processid 24141
attr repetition 0
attr replication #0
attr resultdir altro-results
attr runnumber 107
attr seedset 107

scalar . 	alg 	3
scalar . 	buf 	8
scalar . 	delta 	0.6
scalar . 	ofedge 	1
scalar Torus3d_bub.timer 	#endTime 	0.001358429331413
scalar Torus3d_bub.timer 	#totalHops 	32586305
scalar Torus3d_bub.timer 	#totalPacks 	6291456
scalar Torus3d_bub.timer 	#totalDerouted 	3932137
scalar Torus3d_bub.timer 	#totalOutFlanked 	3717983
scalar Torus3d_bub.timer 	#totalCQRed 	214154
scalar Torus3d_bub.timer 	#LB 	0.000786432
scalar Torus3d_bub.timer 	#ratio 	0.5789274287695
statistic Torus3d_bub.timer 	"Hop Times"
field count 6291456
field mean 5.1748196512756e-06
field stddev 4.5519507076968e-06
field sum 32.557150143936
field sqrsum 0.0002988379338187
field min 4.50332853e-07
field max 5.7504332509e-05
bin	-INF	0
bin	0	0
bin	7.12e-08	0
bin	1.424e-07	0
bin	2.136e-07	0
bin	2.848e-07	0
bin	3.56e-07	0
bin	4.272e-07	16453
bin	4.984e-07	29086
bin	5.696e-07	25523
bin	6.408e-07	36971
bin	7.12e-07	44968
bin	7.832e-07	26394
bin	8.544e-07	44691
bin	9.256e-07	68699
bin	9.968e-07	46813
bin	1.068e-06	28154
bin	1.1392e-06	85098
bin	1.2104e-06	55903
bin	1.2816e-06	41803
bin	1.3528e-06	39238
bin	1.424e-06	19545
bin	1.4952e-06	68859
bin	1.5664e-06	22237
bin	1.6376e-06	25666
bin	1.7088e-06	47960
bin	1.78e-06	64011
bin	1.8512e-06	68298
bin	1.9224e-06	87606
bin	1.9936e-06	65266
bin	2.0648e-06	83830
bin	2.136e-06	66292
bin	2.2072e-06	75456
bin	2.2784e-06	123702
bin	2.3496e-06	83801
bin	2.4208e-06	116593
bin	2.492e-06	97500
bin	2.5632e-06	108921
bin	2.6344e-06	102889
bin	2.7056e-06	94308
bin	2.7768e-06	105416
bin	2.848e-06	74038
bin	2.9192e-06	91990
bin	2.9904e-06	66903
bin	3.0616e-06	99789
bin	3.1328e-06	72150
bin	3.204e-06	87811
bin	3.2752e-06	76773
bin	3.3464e-06	58297
bin	3.4176e-06	62766
bin	3.4888e-06	58168
bin	3.56e-06	70479
bin	3.6312e-06	62464
bin	3.7024e-06	60052
bin	3.7736e-06	51614
bin	3.8448e-06	70665
bin	3.916e-06	47854
bin	3.9872e-06	54642
bin	4.0584e-06	71859
bin	4.1296e-06	64353
bin	4.2008e-06	63001
bin	4.272e-06	61527
bin	4.3432e-06	60437
bin	4.4144e-06	50398
bin	4.4856e-06	49723
bin	4.5568e-06	47222
bin	4.628e-06	61356
bin	4.6992e-06	43684
bin	4.7704e-06	44625
bin	4.8416e-06	54153
bin	4.9128e-06	48452
bin	4.984e-06	40769
bin	5.0552e-06	57328
bin	5.1264e-06	73629
bin	5.1976e-06	44906
bin	5.2688e-06	54120
bin	5.34e-06	38159
bin	5.4112e-06	67698
bin	5.4824e-06	41375
bin	5.5536e-06	39005
bin	5.6248e-06	54289
bin	5.696e-06	42620
bin	5.7672e-06	38286
bin	5.8384e-06	48116
bin	5.9096e-06	47001
bin	5.9808e-06	28290
bin	6.052e-06	32662
bin	6.1232e-06	22019
bin	6.1944e-06	36450
bin	6.2656e-06	18410
bin	6.3368e-06	18569
bin	6.408e-06	30742
bin	6.4792e-06	21900
bin	6.5504e-06	17433
bin	6.6216e-06	17622
bin	6.6928e-06	29135
bin	6.764e-06	20477
bin	6.8352e-06	20436
bin	6.9064e-06	16507
bin	6.9776e-06	30863
bin	7.0488e-06	14004
bin	7.12e-06	13556
bin	7.1912e-06	22442
bin	7.2624e-06	17096
bin	7.3336e-06	13089
bin	7.4048e-06	12367
bin	7.476e-06	23392
bin	7.5472e-06	15776
bin	7.6184e-06	11485
bin	7.6896e-06	9688
bin	7.7608e-06	25012
bin	7.832e-06	8325
bin	7.9032e-06	8435
bin	7.9744e-06	17487
bin	8.0456e-06	7866
bin	8.1168e-06	6606
bin	8.188e-06	7351
bin	8.2592e-06	12868
bin	8.3304e-06	10120
bin	8.4016e-06	7775
bin	8.4728e-06	5892
bin	8.544e-06	19836
bin	8.6152e-06	5552
bin	8.6864e-06	19510
bin	8.7576e-06	15303
bin	8.8288e-06	21409
bin	8.9e-06	5656
bin	8.9712e-06	19351
bin	9.0424e-06	27464
bin	9.1136e-06	9826
bin	9.1848e-06	20919
bin	9.256e-06	6023
bin	9.3272e-06	28865
bin	9.3984e-06	5958
bin	9.4696e-06	21148
bin	9.5408e-06	10824
bin	9.612e-06	22398
bin	9.6832e-06	6463
bin	9.7544e-06	7911
bin	9.8256e-06	15549
bin	9.8968e-06	10112
bin	9.968e-06	8100
bin	1.00392e-05	5274
bin	1.01104e-05	15884
bin	1.01816e-05	3408
bin	1.02528e-05	5671
bin	1.0324e-05	10591
bin	1.03952e-05	4598
bin	1.04664e-05	3974
bin	1.05376e-05	4160
bin	1.06088e-05	8602
bin	1.068e-05	5088
bin	1.07512e-05	4095
bin	1.08224e-05	3171
bin	1.08936e-05	13042
bin	1.09648e-05	2750
bin	1.1036e-05	3966
bin	1.11072e-05	10164
bin	1.11784e-05	5677
bin	1.12496e-05	2558
bin	1.13208e-05	3172
bin	1.1392e-05	10776
bin	1.14632e-05	6837
bin	1.15344e-05	2726
bin	1.16056e-05	2942
bin	1.16768e-05	13049
bin	1.1748e-05	2781
bin	1.18192e-05	3200
bin	1.18904e-05	10926
bin	1.19616e-05	20951
bin	1.20328e-05	12764
bin	1.2104e-05	5199
bin	1.21752e-05	25147
bin	1.22464e-05	6562
bin	1.23176e-05	12955
bin	1.23888e-05	4674
bin	1.246e-05	14395
bin	1.25312e-05	15323
bin	1.26024e-05	3324
bin	1.26736e-05	20942
bin	1.27448e-05	18011
bin	1.2816e-05	2781
bin	1.28872e-05	15921
bin	1.29584e-05	6750
bin	1.30296e-05	4060
bin	1.31008e-05	2195
bin	1.3172e-05	3751
bin	1.32432e-05	5052
bin	1.33144e-05	3237
bin	1.33856e-05	2792
bin	1.34568e-05	4830
bin	1.3528e-05	2946
bin	1.35992e-05	2450
bin	1.36704e-05	2367
bin	1.37416e-05	4432
bin	1.38128e-05	2627
bin	1.3884e-05	2067
bin	1.39552e-05	2710
bin	1.40264e-05	3906
bin	1.40976e-05	2389
bin	1.41688e-05	2508
bin	1.424e-05	3862
bin	1.43112e-05	2545
bin	1.43824e-05	2575
bin	1.44536e-05	2336
bin	1.45248e-05	3650
bin	1.4596e-05	2529
bin	1.46672e-05	2137
bin	1.47384e-05	2441
bin	1.48096e-05	3085
bin	1.48808e-05	1966
bin	1.4952e-05	1976
bin	1.50232e-05	2902
bin	1.50944e-05	1792
bin	1.51656e-05	1753
bin	1.52368e-05	1829
bin	1.5308e-05	2427
bin	1.53792e-05	1558
bin	1.54504e-05	1553
bin	1.55216e-05	1855
bin	1.55928e-05	2153
bin	1.5664e-05	1590
bin	1.57352e-05	1540
bin	1.58064e-05	2410
bin	1.58776e-05	1646
bin	1.59488e-05	1590
bin	1.602e-05	1683
bin	1.60912e-05	2229
bin	1.61624e-05	1567
bin	1.62336e-05	1512
bin	1.63048e-05	1794
bin	1.6376e-05	1871
bin	1.64472e-05	1492
bin	1.65184e-05	1473
bin	1.65896e-05	1917
bin	1.66608e-05	1385
bin	1.6732e-05	1285
bin	1.68032e-05	1382
bin	1.68744e-05	1680
bin	1.69456e-05	1256
bin	1.70168e-05	1205
bin	1.7088e-05	1389
bin	1.71592e-05	1361
bin	1.72304e-05	1143
bin	1.73016e-05	1110
bin	1.73728e-05	1448
bin	1.7444e-05	1204
bin	1.75152e-05	1135
bin	1.75864e-05	1207
bin	1.76576e-05	1346
bin	1.77288e-05	1128
bin	1.78e-05	1090
bin	1.78712e-05	1170
bin	1.79424e-05	1239
bin	1.80136e-05	1048
bin	1.80848e-05	1121
bin	1.8156e-05	1223
bin	1.82272e-05	987
bin	1.82984e-05	990
bin	1.83696e-05	1110
bin	1.84408e-05	1133
bin	1.8512e-05	989
bin	1.85832e-05	1031
bin	1.86544e-05	1079
bin	1.87256e-05	1080
bin	1.87968e-05	1007
bin	1.8868e-05	1026
bin	1.89392e-05	1064
bin	1.90104e-05	1002
bin	1.90816e-05	965
bin	1.91528e-05	998
bin	1.9224e-05	1047
bin	1.92952e-05	929
bin	1.93664e-05	988
bin	1.94376e-05	986
bin	1.95088e-05	910
bin	1.958e-05	992
bin	1.96512e-05	893
bin	1.97224e-05	985
bin	1.97936e-05	888
bin	1.98648e-05	919
bin	1.9936e-05	916
bin	2.00072e-05	874
bin	2.00784e-05	866
bin	2.01496e-05	1021
bin	2.02208e-05	883
bin	2.0292e-05	870
bin	2.03632e-05	911
bin	2.04344e-05	835
bin	2.05056e-05	886
bin	2.05768e-05	851
bin	2.0648e-05	897
bin	2.07192e-05	843
bin	2.07904e-05	787
bin	2.08616e-05	786
bin	2.09328e-05	963
bin	2.1004e-05	796
bin	2.10752e-05	770
bin	2.11464e-05	874
bin	2.12176e-05	830
bin	2.12888e-05	874
bin	2.136e-05	870
bin	2.14312e-05	959
bin	2.15024e-05	953
bin	2.15736e-05	980
bin	2.16448e-05	1002
bin	2.1716e-05	1087
bin	2.17872e-05	990
bin	2.18584e-05	994
bin	2.19296e-05	1102
bin	2.20008e-05	1032
bin	2.2072e-05	1003
bin	2.21432e-05	997
bin	2.22144e-05	1091
bin	2.22856e-05	1169
bin	2.23568e-05	1042
bin	2.2428e-05	1091
bin	2.24992e-05	1191
bin	2.25704e-05	1121
bin	2.26416e-05	1047
bin	2.27128e-05	1054
bin	2.2784e-05	1032
bin	2.28552e-05	1041
bin	2.29264e-05	1044
bin	2.29976e-05	1043
bin	2.30688e-05	1024
bin	2.314e-05	964
bin	2.32112e-05	905
bin	2.32824e-05	928
bin	2.33536e-05	764
bin	2.34248e-05	778
bin	2.3496e-05	760
bin	2.35672e-05	682
bin	2.36384e-05	692
bin	2.37096e-05	693
bin	2.37808e-05	662
bin	2.3852e-05	639
bin	2.39232e-05	630
bin	2.39944e-05	550
bin	2.40656e-05	663
bin	2.41368e-05	552
bin	2.4208e-05	519
bin	2.42792e-05	565
bin	2.43504e-05	488
bin	2.44216e-05	511
bin	2.44928e-05	485
bin	2.4564e-05	508
bin	2.46352e-05	472
bin	2.47064e-05	484
bin	2.47776e-05	438
bin	2.48488e-05	470
bin	2.492e-05	465
bin	2.49912e-05	411
bin	2.50624e-05	432
bin	2.51336e-05	426
bin	2.52048e-05	459
bin	2.5276e-05	386
bin	2.53472e-05	471
bin	2.54184e-05	441
bin	2.54896e-05	476
bin	2.55608e-05	462
bin	2.5632e-05	497
bin	2.57032e-05	474
bin	2.57744e-05	472
bin	2.58456e-05	503
bin	2.59168e-05	483
bin	2.5988e-05	509
bin	2.60592e-05	489
bin	2.61304e-05	496
bin	2.62016e-05	498
bin	2.62728e-05	537
bin	2.6344e-05	489
bin	2.64152e-05	566
bin	2.64864e-05	571
bin	2.65576e-05	541
bin	2.66288e-05	636
bin	2.67e-05	536
bin	2.67712e-05	583
bin	2.68424e-05	561
bin	2.69136e-05	593
bin	2.69848e-05	583
bin	2.7056e-05	651
bin	2.71272e-05	652
bin	2.71984e-05	631
bin	2.72696e-05	683
bin	2.73408e-05	691
bin	2.7412e-05	653
bin	2.74832e-05	684
bin	2.75544e-05	776
bin	2.76256e-05	703
bin	2.76968e-05	726
bin	2.7768e-05	744
bin	2.78392e-05	708
bin	2.79104e-05	696
bin	2.79816e-05	684
bin	2.80528e-05	699
bin	2.8124e-05	765
bin	2.81952e-05	702
bin	2.82664e-05	756
bin	2.83376e-05	792
bin	2.84088e-05	766
bin	2.848e-05	718
bin	2.85512e-05	751
bin	2.86224e-05	768
bin	2.86936e-05	745
bin	2.87648e-05	780
bin	2.8836e-05	840
bin	2.89072e-05	818
bin	2.89784e-05	839
bin	2.90496e-05	821
bin	2.91208e-05	869
bin	2.9192e-05	831
bin	2.92632e-05	814
bin	2.93344e-05	863
bin	2.94056e-05	796
bin	2.94768e-05	794
bin	2.9548e-05	829
bin	2.96192e-05	832
bin	2.96904e-05	728
bin	2.97616e-05	665
bin	2.98328e-05	685
bin	2.9904e-05	641
bin	2.99752e-05	578
bin	3.00464e-05	525
bin	3.01176e-05	550
bin	3.01888e-05	510
bin	3.026e-05	439
bin	3.03312e-05	429
bin	3.04024e-05	447
bin	3.04736e-05	369
bin	3.05448e-05	336
bin	3.0616e-05	369
bin	3.06872e-05	319
bin	3.07584e-05	274
bin	3.08296e-05	274
bin	3.09008e-05	271
bin	3.0972e-05	231
bin	3.10432e-05	228
bin	3.11144e-05	226
bin	3.11856e-05	221
bin	3.12568e-05	200
bin	3.1328e-05	184
bin	3.13992e-05	228
bin	3.14704e-05	182
bin	3.15416e-05	177
bin	3.16128e-05	174
bin	3.1684e-05	214
bin	3.17552e-05	151
bin	3.18264e-05	166
bin	3.18976e-05	178
bin	3.19688e-05	182
bin	3.204e-05	175
bin	3.21112e-05	151
bin	3.21824e-05	185
bin	3.22536e-05	168
bin	3.23248e-05	156
bin	3.2396e-05	134
bin	3.24672e-05	197
bin	3.25384e-05	142
bin	3.26096e-05	154
bin	3.26808e-05	167
bin	3.2752e-05	154
bin	3.28232e-05	159
bin	3.28944e-05	143
bin	3.29656e-05	179
bin	3.30368e-05	143
bin	3.3108e-05	134
bin	3.31792e-05	148
bin	3.32504e-05	149
bin	3.33216e-05	130
bin	3.33928e-05	143
bin	3.3464e-05	138
bin	3.35352e-05	136
bin	3.36064e-05	146
bin	3.36776e-05	104
bin	3.37488e-05	164
bin	3.382e-05	118
bin	3.38912e-05	121
bin	3.39624e-05	140
bin	3.40336e-05	131
bin	3.41048e-05	129
bin	3.4176e-05	126
bin	3.42472e-05	137
bin	3.43184e-05	117
bin	3.43896e-05	127
bin	3.44608e-05	120
bin	3.4532e-05	129
bin	3.46032e-05	115
bin	3.46744e-05	117
bin	3.47456e-05	118
bin	3.48168e-05	115
bin	3.4888e-05	123
bin	3.49592e-05	85
bin	3.50304e-05	128
bin	3.51016e-05	111
bin	3.51728e-05	109
bin	3.5244e-05	107
bin	3.53152e-05	122
bin	3.53864e-05	108
bin	3.54576e-05	99
bin	3.55288e-05	116
bin	3.56e-05	6617
statistic Torus3d_bub.timer 	"Life Times"
field count 6291456
field mean 2.3928122412973e-05
field stddev 2.1228793639574e-05
field sum 150.54272932383
field sqrsum 0.0064375225317605
field min 5.2e-07
field max 0.000154067999356
bin	-INF	0
bin	0	25420
bin	8.544e-07	114811
bin	1.7088e-06	199265
bin	2.5632e-06	151447
bin	3.4176e-06	148645
bin	4.272e-06	134514
bin	5.1264e-06	194690
bin	5.9808e-06	165740
bin	6.8352e-06	155642
bin	7.6896e-06	173640
bin	8.544e-06	209175
bin	9.3984e-06	188066
bin	1.02528e-05	162795
bin	1.11072e-05	196892
bin	1.19616e-05	176558
bin	1.2816e-05	130174
bin	1.36704e-05	127682
bin	1.45248e-05	125717
bin	1.53792e-05	151911
bin	1.62336e-05	126060
bin	1.7088e-05	118159
bin	1.79424e-05	135683
bin	1.87968e-05	105883
bin	1.96512e-05	95174
bin	2.05056e-05	124607
bin	2.136e-05	107305
bin	2.22144e-05	109346
bin	2.30688e-05	118427
bin	2.39232e-05	133864
bin	2.47776e-05	109225
bin	2.5632e-05	80774
bin	2.64864e-05	65584
bin	2.73408e-05	65071
bin	2.81952e-05	60327
bin	2.90496e-05	58676
bin	2.9904e-05	60214
bin	3.07584e-05	61294
bin	3.16128e-05	58915
bin	3.24672e-05	58296
bin	3.33216e-05	62227
bin	3.4176e-05	57359
bin	3.50304e-05	53655
bin	3.58848e-05	52079
bin	3.67392e-05	54855
bin	3.75936e-05	53595
bin	3.8448e-05	52763
bin	3.93024e-05	54412
bin	4.01568e-05	47965
bin	4.10112e-05	48602
bin	4.18656e-05	39641
bin	4.272e-05	35739
bin	4.35744e-05	34543
bin	4.44288e-05	31738
bin	4.52832e-05	29860
bin	4.61376e-05	27192
bin	4.6992e-05	25065
bin	4.78464e-05	23218
bin	4.87008e-05	22964
bin	4.95552e-05	21179
bin	5.04096e-05	19995
bin	5.1264e-05	18891
bin	5.21184e-05	18305
bin	5.29728e-05	17635
bin	5.38272e-05	17988
bin	5.46816e-05	18038
bin	5.5536e-05	17486
bin	5.63904e-05	17135
bin	5.72448e-05	16465
bin	5.80992e-05	16696
bin	5.89536e-05	16782
bin	5.9808e-05	16515
bin	6.06624e-05	15892
bin	6.15168e-05	16077
bin	6.23712e-05	15439
bin	6.32256e-05	14578
bin	6.408e-05	14805
bin	6.49344e-05	14610
bin	6.57888e-05	14684
bin	6.66432e-05	14295
bin	6.74976e-05	14046
bin	6.8352e-05	13838
bin	6.92064e-05	13250
bin	7.00608e-05	12549
bin	7.09152e-05	12150
bin	7.17696e-05	12241
bin	7.2624e-05	11422
bin	7.34784e-05	10638
bin	7.43328e-05	10064
bin	7.51872e-05	9899
bin	7.60416e-05	9006
bin	7.6896e-05	8627
bin	7.77504e-05	8487
bin	7.86048e-05	7717
bin	7.94592e-05	7269
bin	8.03136e-05	7106
bin	8.1168e-05	7041
bin	8.20224e-05	6249
bin	8.28768e-05	5988
bin	8.37312e-05	6022
bin	8.45856e-05	6030
bin	8.544e-05	6200
bin	8.62944e-05	6520
bin	8.71488e-05	6470
bin	8.80032e-05	5821
bin	8.88576e-05	5947
bin	8.9712e-05	5747
bin	9.05664e-05	5293
bin	9.14208e-05	4896
bin	9.22752e-05	4686
bin	9.31296e-05	4175
bin	9.3984e-05	3911
bin	9.48384e-05	3959
bin	9.56928e-05	3705
bin	9.65472e-05	3483
bin	9.74016e-05	3236
bin	9.8256e-05	3097
bin	9.91104e-05	2874
bin	9.99648e-05	2702
bin	0.0001008192	2537
bin	0.0001016736	2541
bin	0.000102528	2488
bin	0.0001033824	2421
bin	0.0001042368	2518
bin	0.0001050912	2551
bin	0.0001059456	2633
bin	0.0001068	2520
bin	0.0001076544	2584
bin	0.0001085088	2741
bin	0.0001093632	2616
bin	0.0001102176	2915
bin	0.000111072	2691
bin	0.0001119264	2703
bin	0.0001127808	2724
bin	0.0001136352	2710
bin	0.0001144896	2621
bin	0.000115344	2800
bin	0.0001161984	2717
bin	0.0001170528	2589
bin	0.0001179072	2440
bin	0.0001187616	2030
bin	0.000119616	1603
bin	0.0001204704	1287
bin	0.0001213248	905
bin	0.0001221792	632
bin	0.0001230336	386
bin	0.000123888	240
bin	0.0001247424	125
bin	0.0001255968	80
bin	0.0001264512	34
bin	0.0001273056	31
bin	0.00012816	18
bin	0.0001290144	11
bin	0.0001298688	4
bin	0.0001307232	0
bin	0.0001315776	0
bin	0.000132432	1
bin	0.0001332864	0
bin	0.0001341408	0
bin	0.0001349952	0
bin	0.0001358496	0
bin	0.000136704	0
bin	0.0001375584	1
bin	0.0001384128	0
bin	0.0001392672	1
bin	0.0001401216	1
bin	0.000140976	2
bin	0.0001418304	3
bin	0.0001426848	0
bin	0.0001435392	1
bin	0.0001443936	0
bin	0.000145248	2
bin	0.0001461024	0
bin	0.0001469568	0
bin	0.0001478112	2
bin	0.0001486656	2
bin	0.00014952	0
bin	0.0001503744	0
bin	0.0001512288	0
bin	0.0001520832	0
bin	0.0001529376	1
bin	0.000153792	2
bin	0.0001546464	0
bin	0.0001555008	0
bin	0.0001563552	0
bin	0.0001572096	0
bin	0.000158064	0
bin	0.0001589184	0
bin	0.0001597728	0
bin	0.0001606272	0
bin	0.0001614816	0
bin	0.000162336	0
bin	0.0001631904	0
bin	0.0001640448	0
bin	0.0001648992	0
bin	0.0001657536	0
bin	0.000166608	0
bin	0.0001674624	0
bin	0.0001683168	0
bin	0.0001691712	0
bin	0.0001700256	0
bin	0.00017088	0
bin	0.0001717344	0
bin	0.0001725888	0
bin	0.0001734432	0
bin	0.0001742976	0
bin	0.000175152	0
bin	0.0001760064	0
bin	0.0001768608	0
bin	0.0001777152	0
bin	0.0001785696	0
bin	0.000179424	0
bin	0.0001802784	0
bin	0.0001811328	0
bin	0.0001819872	0
bin	0.0001828416	0
bin	0.000183696	0
bin	0.0001845504	0
bin	0.0001854048	0
bin	0.0001862592	0
bin	0.0001871136	0
bin	0.000187968	0
bin	0.0001888224	0
bin	0.0001896768	0
bin	0.0001905312	0
bin	0.0001913856	0
bin	0.00019224	0
bin	0.0001930944	0
bin	0.0001939488	0
bin	0.0001948032	0
bin	0.0001956576	0
bin	0.000196512	0
bin	0.0001973664	0
bin	0.0001982208	0
bin	0.0001990752	0
bin	0.0001999296	0
bin	0.000200784	0
bin	0.0002016384	0
bin	0.0002024928	0
bin	0.0002033472	0
bin	0.0002042016	0
bin	0.000205056	0
bin	0.0002059104	0
bin	0.0002067648	0
bin	0.0002076192	0
bin	0.0002084736	0
bin	0.000209328	0
bin	0.0002101824	0
bin	0.0002110368	0
bin	0.0002118912	0
bin	0.0002127456	0
bin	0.0002136	0
bin	0.0002144544	0
bin	0.0002153088	0
bin	0.0002161632	0
bin	0.0002170176	0
bin	0.000217872	0
bin	0.0002187264	0
bin	0.0002195808	0
bin	0.0002204352	0
bin	0.0002212896	0
bin	0.000222144	0
bin	0.0002229984	0
bin	0.0002238528	0
bin	0.0002247072	0
bin	0.0002255616	0
bin	0.000226416	0
bin	0.0002272704	0
bin	0.0002281248	0
bin	0.0002289792	0
bin	0.0002298336	0
bin	0.000230688	0
bin	0.0002315424	0
bin	0.0002323968	0
bin	0.0002332512	0
bin	0.0002341056	0
bin	0.00023496	0
bin	0.0002358144	0
bin	0.0002366688	0
bin	0.0002375232	0
bin	0.0002383776	0
bin	0.000239232	0
bin	0.0002400864	0
bin	0.0002409408	0
bin	0.0002417952	0
bin	0.0002426496	0
bin	0.000243504	0
bin	0.0002443584	0
bin	0.0002452128	0
bin	0.0002460672	0
bin	0.0002469216	0
bin	0.000247776	0
bin	0.0002486304	0
bin	0.0002494848	0
bin	0.0002503392	0
bin	0.0002511936	0
bin	0.000252048	0
bin	0.0002529024	0
bin	0.0002537568	0
bin	0.0002546112	0
bin	0.0002554656	0
bin	0.00025632	0
bin	0.0002571744	0
bin	0.0002580288	0
bin	0.0002588832	0
bin	0.0002597376	0
bin	0.000260592	0
bin	0.0002614464	0
bin	0.0002623008	0
bin	0.0002631552	0
bin	0.0002640096	0
bin	0.000264864	0
bin	0.0002657184	0
bin	0.0002665728	0
bin	0.0002674272	0
bin	0.0002682816	0
bin	0.000269136	0
bin	0.0002699904	0
bin	0.0002708448	0
bin	0.0002716992	0
bin	0.0002725536	0
bin	0.000273408	0
bin	0.0002742624	0
bin	0.0002751168	0
bin	0.0002759712	0
bin	0.0002768256	0
bin	0.00027768	0
bin	0.0002785344	0
bin	0.0002793888	0
bin	0.0002802432	0
bin	0.0002810976	0
bin	0.000281952	0
bin	0.0002828064	0
bin	0.0002836608	0
bin	0.0002845152	0
bin	0.0002853696	0
bin	0.000286224	0
bin	0.0002870784	0
bin	0.0002879328	0
bin	0.0002887872	0
bin	0.0002896416	0
bin	0.000290496	0
bin	0.0002913504	0
bin	0.0002922048	0
bin	0.0002930592	0
bin	0.0002939136	0
bin	0.000294768	0
bin	0.0002956224	0
bin	0.0002964768	0
bin	0.0002973312	0
bin	0.0002981856	0
bin	0.00029904	0
bin	0.0002998944	0
bin	0.0003007488	0
bin	0.0003016032	0
bin	0.0003024576	0
bin	0.000303312	0
bin	0.0003041664	0
bin	0.0003050208	0
bin	0.0003058752	0
bin	0.0003067296	0
bin	0.000307584	0
bin	0.0003084384	0
bin	0.0003092928	0
bin	0.0003101472	0
bin	0.0003110016	0
bin	0.000311856	0
bin	0.0003127104	0
bin	0.0003135648	0
bin	0.0003144192	0
bin	0.0003152736	0
bin	0.000316128	0
bin	0.0003169824	0
bin	0.0003178368	0
bin	0.0003186912	0
bin	0.0003195456	0
bin	0.0003204	0
bin	0.0003212544	0
bin	0.0003221088	0
bin	0.0003229632	0
bin	0.0003238176	0
bin	0.000324672	0
bin	0.0003255264	0
bin	0.0003263808	0
bin	0.0003272352	0
bin	0.0003280896	0
bin	0.000328944	0
bin	0.0003297984	0
bin	0.0003306528	0
bin	0.0003315072	0
bin	0.0003323616	0
bin	0.000333216	0
bin	0.0003340704	0
bin	0.0003349248	0
bin	0.0003357792	0
bin	0.0003366336	0
bin	0.000337488	0
bin	0.0003383424	0
bin	0.0003391968	0
bin	0.0003400512	0
bin	0.0003409056	0
bin	0.00034176	0
bin	0.0003426144	0
bin	0.0003434688	0
bin	0.0003443232	0
bin	0.0003451776	0
bin	0.000346032	0
bin	0.0003468864	0
bin	0.0003477408	0
bin	0.0003485952	0
bin	0.0003494496	0
bin	0.000350304	0
bin	0.0003511584	0
bin	0.0003520128	0
bin	0.0003528672	0
bin	0.0003537216	0
bin	0.000354576	0
bin	0.0003554304	0
bin	0.0003562848	0
bin	0.0003571392	0
bin	0.0003579936	0
bin	0.000358848	0
bin	0.0003597024	0
bin	0.0003605568	0
bin	0.0003614112	0
bin	0.0003622656	0
bin	0.00036312	0
bin	0.0003639744	0
bin	0.0003648288	0
bin	0.0003656832	0
bin	0.0003665376	0
bin	0.000367392	0
bin	0.0003682464	0
bin	0.0003691008	0
bin	0.0003699552	0
bin	0.0003708096	0
bin	0.000371664	0
bin	0.0003725184	0
bin	0.0003733728	0
bin	0.0003742272	0
bin	0.0003750816	0
bin	0.000375936	0
bin	0.0003767904	0
bin	0.0003776448	0
bin	0.0003784992	0
bin	0.0003793536	0
bin	0.000380208	0
bin	0.0003810624	0
bin	0.0003819168	0
bin	0.0003827712	0
bin	0.0003836256	0
bin	0.00038448	0
bin	0.0003853344	0
bin	0.0003861888	0
bin	0.0003870432	0
bin	0.0003878976	0
bin	0.000388752	0
bin	0.0003896064	0
bin	0.0003904608	0
bin	0.0003913152	0
bin	0.0003921696	0
bin	0.000393024	0
bin	0.0003938784	0
bin	0.0003947328	0
bin	0.0003955872	0
bin	0.0003964416	0
bin	0.000397296	0
bin	0.0003981504	0
bin	0.0003990048	0
bin	0.0003998592	0
bin	0.0004007136	0
bin	0.000401568	0
bin	0.0004024224	0
bin	0.0004032768	0
bin	0.0004041312	0
bin	0.0004049856	0
bin	0.00040584	0
bin	0.0004066944	0
bin	0.0004075488	0
bin	0.0004084032	0
bin	0.0004092576	0
bin	0.000410112	0
bin	0.0004109664	0
bin	0.0004118208	0
bin	0.0004126752	0
bin	0.0004135296	0
bin	0.000414384	0
bin	0.0004152384	0
bin	0.0004160928	0
bin	0.0004169472	0
bin	0.0004178016	0
bin	0.000418656	0
bin	0.0004195104	0
bin	0.0004203648	0
bin	0.0004212192	0
bin	0.0004220736	0
bin	0.000422928	0
bin	0.0004237824	0
bin	0.0004246368	0
bin	0.0004254912	0
bin	0.0004263456	0
bin	0.0004272	0
