version 2
run Butterfly-132-20120709-13:49:12-24176
attr alg 0
attr buf 8
attr configname Butterfly
attr datetime 20120709-13:49:12
attr delta 2
attr experiment Butterfly
attr ext false
attr inifile altro.ini
attr iterationvars "$buf=8, $ext=false, $ofedge=1, $delta=2, $alg=0"
attr iterationvars2 "$buf=8, $ext=false, $ofedge=1, $delta=2, $alg=0, $repetition=0"
attr measurement "$buf=8, $ext=false, $ofedge=1, $delta=2, $alg=0"
attr network Torus3d_bub
attr ofedge 1
attr processid 24176
attr repetition 0
attr replication #0
attr resultdir altro-results
attr runnumber 132
attr seedset 132

scalar . 	alg 	0
scalar . 	buf 	8
scalar . 	delta 	2
scalar . 	ofedge 	1
scalar Torus3d_bub.timer 	#endTime 	0.000941131332063
scalar Torus3d_bub.timer 	#totalHops 	23592960
scalar Torus3d_bub.timer 	#totalPacks 	6291456
scalar Torus3d_bub.timer 	#totalDerouted 	0
scalar Torus3d_bub.timer 	#totalOutFlanked 	0
scalar Torus3d_bub.timer 	#totalCQRed 	0
scalar Torus3d_bub.timer 	#LB 	0.000786432
scalar Torus3d_bub.timer 	#ratio 	0.83562407626586
statistic Torus3d_bub.timer 	"Hop Times"
field count 6291456
field mean 8.7546202142359e-05
field stddev 9.0136597118882e-05
field sum 550.79307874576
field sqrsum 0.099335436134101
field min 4.80666657e-07
field max 0.000596600332063
bin	-INF	0
bin	0	0
bin	7.12e-08	0
bin	1.424e-07	0
bin	2.136e-07	0
bin	2.848e-07	0
bin	3.56e-07	0
bin	4.272e-07	2048
bin	4.984e-07	4432
bin	5.696e-07	2112
bin	6.408e-07	2936
bin	7.12e-07	7488
bin	7.832e-07	1712
bin	8.544e-07	1784
bin	9.256e-07	4624
bin	9.968e-07	9224
bin	1.068e-06	5112
bin	1.1392e-06	3288
bin	1.2104e-06	6928
bin	1.2816e-06	5416
bin	1.3528e-06	3032
bin	1.424e-06	2464
bin	1.4952e-06	7072
bin	1.5664e-06	4744
bin	1.6376e-06	4800
bin	1.7088e-06	1064
bin	1.78e-06	4888
bin	1.8512e-06	2880
bin	1.9224e-06	3296
bin	1.9936e-06	5664
bin	2.0648e-06	7992
bin	2.136e-06	3104
bin	2.2072e-06	6272
bin	2.2784e-06	10480
bin	2.3496e-06	3536
bin	2.4208e-06	4208
bin	2.492e-06	5984
bin	2.5632e-06	10528
bin	2.6344e-06	6944
bin	2.7056e-06	3432
bin	2.7768e-06	3352
bin	2.848e-06	7392
bin	2.9192e-06	4536
bin	2.9904e-06	4456
bin	3.0616e-06	9536
bin	3.1328e-06	4352
bin	3.204e-06	2704
bin	3.2752e-06	2480
bin	3.3464e-06	6216
bin	3.4176e-06	5704
bin	3.4888e-06	3064
bin	3.56e-06	3640
bin	3.6312e-06	7696
bin	3.7024e-06	5448
bin	3.7736e-06	5448
bin	3.8448e-06	7032
bin	3.916e-06	4848
bin	3.9872e-06	2720
bin	4.0584e-06	6424
bin	4.1296e-06	7440
bin	4.2008e-06	6216
bin	4.272e-06	3760
bin	4.3432e-06	6720
bin	4.4144e-06	8832
bin	4.4856e-06	3200
bin	4.5568e-06	5056
bin	4.628e-06	5952
bin	4.6992e-06	4240
bin	4.7704e-06	1592
bin	4.8416e-06	3968
bin	4.9128e-06	7368
bin	4.984e-06	2952
bin	5.0552e-06	2072
bin	5.1264e-06	4304
bin	5.1976e-06	6824
bin	5.2688e-06	1528
bin	5.34e-06	3968
bin	5.4112e-06	5616
bin	5.4824e-06	4344
bin	5.5536e-06	2600
bin	5.6248e-06	5112
bin	5.696e-06	6304
bin	5.7672e-06	5600
bin	5.8384e-06	3096
bin	5.9096e-06	3568
bin	5.9808e-06	6776
bin	6.052e-06	3768
bin	6.1232e-06	3752
bin	6.1944e-06	6144
bin	6.2656e-06	3288
bin	6.3368e-06	2472
bin	6.408e-06	2968
bin	6.4792e-06	5984
bin	6.5504e-06	3216
bin	6.6216e-06	2952
bin	6.6928e-06	5512
bin	6.764e-06	9856
bin	6.8352e-06	3944
bin	6.9064e-06	3952
bin	6.9776e-06	6616
bin	7.0488e-06	2504
bin	7.12e-06	5480
bin	7.1912e-06	4424
bin	7.2624e-06	9544
bin	7.3336e-06	4368
bin	7.4048e-06	2664
bin	7.476e-06	3264
bin	7.5472e-06	6800
bin	7.6184e-06	3168
bin	7.6896e-06	3160
bin	7.7608e-06	6080
bin	7.832e-06	2816
bin	7.9032e-06	3224
bin	7.9744e-06	1376
bin	8.0456e-06	7304
bin	8.1168e-06	2648
bin	8.188e-06	3680
bin	8.2592e-06	2976
bin	8.3304e-06	7208
bin	8.4016e-06	2840
bin	8.4728e-06	3768
bin	8.544e-06	7784
bin	8.6152e-06	2600
bin	8.6864e-06	3560
bin	8.7576e-06	3432
bin	8.8288e-06	7336
bin	8.9e-06	2840
bin	8.9712e-06	3000
bin	9.0424e-06	4408
bin	9.1136e-06	7768
bin	9.1848e-06	7432
bin	9.256e-06	3576
bin	9.3272e-06	9304
bin	9.3984e-06	3240
bin	9.4696e-06	6312
bin	9.5408e-06	3200
bin	9.612e-06	9200
bin	9.6832e-06	4968
bin	9.7544e-06	2872
bin	9.8256e-06	4296
bin	9.8968e-06	7384
bin	9.968e-06	5016
bin	1.00392e-05	2736
bin	1.01104e-05	8928
bin	1.01816e-05	3584
bin	1.02528e-05	3840
bin	1.0324e-05	4872
bin	1.03952e-05	7800
bin	1.04664e-05	2784
bin	1.05376e-05	4168
bin	1.06088e-05	4256
bin	1.068e-05	9080
bin	1.07512e-05	2840
bin	1.08224e-05	3536
bin	1.08936e-05	6848
bin	1.09648e-05	3592
bin	1.1036e-05	3776
bin	1.11072e-05	3664
bin	1.11784e-05	7728
bin	1.12496e-05	2720
bin	1.13208e-05	2592
bin	1.1392e-05	2928
bin	1.14632e-05	6336
bin	1.15344e-05	3512
bin	1.16056e-05	2528
bin	1.16768e-05	7344
bin	1.1748e-05	2304
bin	1.18192e-05	3784
bin	1.18904e-05	2552
bin	1.19616e-05	7608
bin	1.20328e-05	3296
bin	1.2104e-05	3032
bin	1.21752e-05	5088
bin	1.22464e-05	7504
bin	1.23176e-05	4968
bin	1.23888e-05	4896
bin	1.246e-05	9080
bin	1.25312e-05	3872
bin	1.26024e-05	5368
bin	1.26736e-05	3520
bin	1.27448e-05	8152
bin	1.2816e-05	4008
bin	1.28872e-05	4312
bin	1.29584e-05	4208
bin	1.30296e-05	3720
bin	1.31008e-05	3976
bin	1.3172e-05	3776
bin	1.32432e-05	3904
bin	1.33144e-05	2448
bin	1.33856e-05	4776
bin	1.34568e-05	3464
bin	1.3528e-05	5232
bin	1.35992e-05	4544
bin	1.36704e-05	4048
bin	1.37416e-05	4520
bin	1.38128e-05	4936
bin	1.3884e-05	3712
bin	1.39552e-05	4592
bin	1.40264e-05	2800
bin	1.40976e-05	3968
bin	1.41688e-05	3736
bin	1.424e-05	5688
bin	1.43112e-05	3552
bin	1.43824e-05	5960
bin	1.44536e-05	4960
bin	1.45248e-05	5208
bin	1.4596e-05	4760
bin	1.46672e-05	3752
bin	1.47384e-05	3664
bin	1.48096e-05	2888
bin	1.48808e-05	2512
bin	1.4952e-05	3192
bin	1.50232e-05	3016
bin	1.50944e-05	2496
bin	1.51656e-05	3968
bin	1.52368e-05	3584
bin	1.5308e-05	4936
bin	1.53792e-05	3184
bin	1.54504e-05	4184
bin	1.55216e-05	3552
bin	1.55928e-05	5296
bin	1.5664e-05	4448
bin	1.57352e-05	4768
bin	1.58064e-05	5080
bin	1.58776e-05	4848
bin	1.59488e-05	6320
bin	1.602e-05	4008
bin	1.60912e-05	4936
bin	1.61624e-05	3848
bin	1.62336e-05	4056
bin	1.63048e-05	4352
bin	1.6376e-05	5032
bin	1.64472e-05	5152
bin	1.65184e-05	4648
bin	1.65896e-05	7024
bin	1.66608e-05	6200
bin	1.6732e-05	6208
bin	1.68032e-05	4920
bin	1.68744e-05	6176
bin	1.69456e-05	5560
bin	1.70168e-05	5640
bin	1.7088e-05	4768
bin	1.71592e-05	5672
bin	1.72304e-05	5032
bin	1.73016e-05	5752
bin	1.73728e-05	4160
bin	1.7444e-05	4120
bin	1.75152e-05	5384
bin	1.75864e-05	4376
bin	1.76576e-05	4184
bin	1.77288e-05	4360
bin	1.78e-05	3864
bin	1.78712e-05	3728
bin	1.79424e-05	3848
bin	1.80136e-05	3280
bin	1.80848e-05	4064
bin	1.8156e-05	4120
bin	1.82272e-05	3808
bin	1.82984e-05	3752
bin	1.83696e-05	3368
bin	1.84408e-05	4784
bin	1.8512e-05	3472
bin	1.85832e-05	3888
bin	1.86544e-05	4272
bin	1.87256e-05	4632
bin	1.87968e-05	4608
bin	1.8868e-05	4344
bin	1.89392e-05	4792
bin	1.90104e-05	3648
bin	1.90816e-05	4216
bin	1.91528e-05	3520
bin	1.9224e-05	4120
bin	1.92952e-05	3624
bin	1.93664e-05	3864
bin	1.94376e-05	3688
bin	1.95088e-05	3584
bin	1.958e-05	3584
bin	1.96512e-05	3472
bin	1.97224e-05	3456
bin	1.97936e-05	3912
bin	1.98648e-05	3416
bin	1.9936e-05	2864
bin	2.00072e-05	4056
bin	2.00784e-05	3384
bin	2.01496e-05	3608
bin	2.02208e-05	4080
bin	2.0292e-05	3840
bin	2.03632e-05	4008
bin	2.04344e-05	3680
bin	2.05056e-05	3856
bin	2.05768e-05	3704
bin	2.0648e-05	3720
bin	2.07192e-05	3792
bin	2.07904e-05	4184
bin	2.08616e-05	3616
bin	2.09328e-05	3576
bin	2.1004e-05	3696
bin	2.10752e-05	4272
bin	2.11464e-05	3776
bin	2.12176e-05	3528
bin	2.12888e-05	3688
bin	2.136e-05	4280
bin	2.14312e-05	3808
bin	2.15024e-05	3776
bin	2.15736e-05	4256
bin	2.16448e-05	3280
bin	2.1716e-05	3096
bin	2.17872e-05	3464
bin	2.18584e-05	3968
bin	2.19296e-05	3440
bin	2.20008e-05	3488
bin	2.2072e-05	3552
bin	2.21432e-05	3944
bin	2.22144e-05	3704
bin	2.22856e-05	3768
bin	2.23568e-05	3992
bin	2.2428e-05	3720
bin	2.24992e-05	4048
bin	2.25704e-05	3952
bin	2.26416e-05	4224
bin	2.27128e-05	3848
bin	2.2784e-05	4120
bin	2.28552e-05	4208
bin	2.29264e-05	4344
bin	2.29976e-05	3848
bin	2.30688e-05	3848
bin	2.314e-05	4560
bin	2.32112e-05	4336
bin	2.32824e-05	4296
bin	2.33536e-05	4088
bin	2.34248e-05	5184
bin	2.3496e-05	4712
bin	2.35672e-05	4248
bin	2.36384e-05	4472
bin	2.37096e-05	5216
bin	2.37808e-05	4944
bin	2.3852e-05	4016
bin	2.39232e-05	4632
bin	2.39944e-05	4816
bin	2.40656e-05	4600
bin	2.41368e-05	3984
bin	2.4208e-05	4720
bin	2.42792e-05	4168
bin	2.43504e-05	4064
bin	2.44216e-05	4792
bin	2.44928e-05	4632
bin	2.4564e-05	4424
bin	2.46352e-05	4272
bin	2.47064e-05	4720
bin	2.47776e-05	4008
bin	2.48488e-05	4624
bin	2.492e-05	4784
bin	2.49912e-05	4880
bin	2.50624e-05	4568
bin	2.51336e-05	4696
bin	2.52048e-05	4024
bin	2.5276e-05	4912
bin	2.53472e-05	4792
bin	2.54184e-05	5304
bin	2.54896e-05	5120
bin	2.55608e-05	4344
bin	2.5632e-05	5056
bin	2.57032e-05	4344
bin	2.57744e-05	4736
bin	2.58456e-05	4104
bin	2.59168e-05	4744
bin	2.5988e-05	4832
bin	2.60592e-05	4160
bin	2.61304e-05	5152
bin	2.62016e-05	3960
bin	2.62728e-05	4416
bin	2.6344e-05	4552
bin	2.64152e-05	4936
bin	2.64864e-05	4560
bin	2.65576e-05	4736
bin	2.66288e-05	4624
bin	2.67e-05	4232
bin	2.67712e-05	4592
bin	2.68424e-05	4528
bin	2.69136e-05	4360
bin	2.69848e-05	4272
bin	2.7056e-05	4632
bin	2.71272e-05	5280
bin	2.71984e-05	4512
bin	2.72696e-05	4384
bin	2.73408e-05	3984
bin	2.7412e-05	4600
bin	2.74832e-05	4296
bin	2.75544e-05	4152
bin	2.76256e-05	5128
bin	2.76968e-05	4720
bin	2.7768e-05	4696
bin	2.78392e-05	4784
bin	2.79104e-05	5064
bin	2.79816e-05	4304
bin	2.80528e-05	5008
bin	2.8124e-05	4448
bin	2.81952e-05	4776
bin	2.82664e-05	4264
bin	2.83376e-05	5568
bin	2.84088e-05	4240
bin	2.848e-05	4864
bin	2.85512e-05	4568
bin	2.86224e-05	4200
bin	2.86936e-05	4552
bin	2.87648e-05	4168
bin	2.8836e-05	4264
bin	2.89072e-05	3888
bin	2.89784e-05	4304
bin	2.90496e-05	3968
bin	2.91208e-05	4536
bin	2.9192e-05	4072
bin	2.92632e-05	4056
bin	2.93344e-05	4336
bin	2.94056e-05	4544
bin	2.94768e-05	4368
bin	2.9548e-05	3608
bin	2.96192e-05	4424
bin	2.96904e-05	4640
bin	2.97616e-05	5192
bin	2.98328e-05	3648
bin	2.9904e-05	4704
bin	2.99752e-05	4096
bin	3.00464e-05	4952
bin	3.01176e-05	4232
bin	3.01888e-05	4824
bin	3.026e-05	4552
bin	3.03312e-05	5032
bin	3.04024e-05	4904
bin	3.04736e-05	5064
bin	3.05448e-05	5960
bin	3.0616e-05	5008
bin	3.06872e-05	6008
bin	3.07584e-05	5160
bin	3.08296e-05	5448
bin	3.09008e-05	5024
bin	3.0972e-05	5992
bin	3.10432e-05	5656
bin	3.11144e-05	4944
bin	3.11856e-05	6216
bin	3.12568e-05	5312
bin	3.1328e-05	6160
bin	3.13992e-05	4640
bin	3.14704e-05	6064
bin	3.15416e-05	4776
bin	3.16128e-05	6000
bin	3.1684e-05	5416
bin	3.17552e-05	5136
bin	3.18264e-05	6096
bin	3.18976e-05	5288
bin	3.19688e-05	5544
bin	3.204e-05	5112
bin	3.21112e-05	6208
bin	3.21824e-05	4160
bin	3.22536e-05	5016
bin	3.23248e-05	5440
bin	3.2396e-05	5688
bin	3.24672e-05	4824
bin	3.25384e-05	5424
bin	3.26096e-05	5608
bin	3.26808e-05	3936
bin	3.2752e-05	5632
bin	3.28232e-05	4784
bin	3.28944e-05	4976
bin	3.29656e-05	5240
bin	3.30368e-05	5432
bin	3.3108e-05	4832
bin	3.31792e-05	4920
bin	3.32504e-05	6024
bin	3.33216e-05	4896
bin	3.33928e-05	5200
bin	3.3464e-05	4752
bin	3.35352e-05	4648
bin	3.36064e-05	4264
bin	3.36776e-05	5608
bin	3.37488e-05	4240
bin	3.382e-05	4776
bin	3.38912e-05	4608
bin	3.39624e-05	4608
bin	3.40336e-05	3768
bin	3.41048e-05	4248
bin	3.4176e-05	4336
bin	3.42472e-05	4160
bin	3.43184e-05	4216
bin	3.43896e-05	4080
bin	3.44608e-05	4392
bin	3.4532e-05	4416
bin	3.46032e-05	4408
bin	3.46744e-05	4744
bin	3.47456e-05	4488
bin	3.48168e-05	4272
bin	3.4888e-05	4192
bin	3.49592e-05	4176
bin	3.50304e-05	4192
bin	3.51016e-05	4408
bin	3.51728e-05	3792
bin	3.5244e-05	4280
bin	3.53152e-05	3512
bin	3.53864e-05	4288
bin	3.54576e-05	4152
bin	3.55288e-05	4128
bin	3.56e-05	4034352
statistic Torus3d_bub.timer 	"Life Times"
field count 6291456
field mean 0.0001960015835427
field stddev 0.00011697848776413
field sum 1233.1353387892
field sqrsum 0.32778853920791
field min 5.2e-07
field max 0.000596600332063
bin	-INF	0
bin	0	8736
bin	8.544e-07	23928
bin	1.7088e-06	23696
bin	2.5632e-06	27632
bin	3.4176e-06	26480
bin	4.272e-06	30808
bin	5.1264e-06	26104
bin	5.9808e-06	27328
bin	6.8352e-06	26072
bin	7.6896e-06	27736
bin	8.544e-06	33304
bin	9.3984e-06	28784
bin	1.02528e-05	30272
bin	1.11072e-05	27864
bin	1.19616e-05	30552
bin	1.2816e-05	16616
bin	1.36704e-05	9648
bin	1.45248e-05	12712
bin	1.53792e-05	7296
bin	1.62336e-05	8024
bin	1.7088e-05	9184
bin	1.79424e-05	10872
bin	1.87968e-05	10736
bin	1.96512e-05	10688
bin	2.05056e-05	8544
bin	2.136e-05	8768
bin	2.22144e-05	8056
bin	2.30688e-05	10480
bin	2.39232e-05	12528
bin	2.47776e-05	10064
bin	2.5632e-05	8416
bin	2.64864e-05	11264
bin	2.73408e-05	11480
bin	2.81952e-05	12832
bin	2.90496e-05	8072
bin	2.9904e-05	7712
bin	3.07584e-05	8696
bin	3.16128e-05	8840
bin	3.24672e-05	10976
bin	3.33216e-05	9648
bin	3.4176e-05	10032
bin	3.50304e-05	9024
bin	3.58848e-05	8768
bin	3.67392e-05	6880
bin	3.75936e-05	6840
bin	3.8448e-05	5856
bin	3.93024e-05	4664
bin	4.01568e-05	4232
bin	4.10112e-05	4024
bin	4.18656e-05	4152
bin	4.272e-05	3696
bin	4.35744e-05	5280
bin	4.44288e-05	6336
bin	4.52832e-05	5888
bin	4.61376e-05	7088
bin	4.6992e-05	3760
bin	4.78464e-05	3576
bin	4.87008e-05	7048
bin	4.95552e-05	6032
bin	5.04096e-05	4504
bin	5.1264e-05	5296
bin	5.21184e-05	3584
bin	5.29728e-05	6200
bin	5.38272e-05	9568
bin	5.46816e-05	10288
bin	5.5536e-05	10168
bin	5.63904e-05	11800
bin	5.72448e-05	12928
bin	5.80992e-05	14096
bin	5.89536e-05	12872
bin	5.9808e-05	14568
bin	6.06624e-05	15880
bin	6.15168e-05	13448
bin	6.23712e-05	13848
bin	6.32256e-05	14192
bin	6.408e-05	13024
bin	6.49344e-05	14848
bin	6.57888e-05	17464
bin	6.66432e-05	15816
bin	6.74976e-05	14248
bin	6.8352e-05	12232
bin	6.92064e-05	13608
bin	7.00608e-05	12176
bin	7.09152e-05	11448
bin	7.17696e-05	11256
bin	7.2624e-05	14656
bin	7.34784e-05	14816
bin	7.43328e-05	14048
bin	7.51872e-05	12624
bin	7.60416e-05	12216
bin	7.6896e-05	12880
bin	7.77504e-05	10232
bin	7.86048e-05	10136
bin	7.94592e-05	12176
bin	8.03136e-05	11056
bin	8.1168e-05	10376
bin	8.20224e-05	11784
bin	8.28768e-05	12776
bin	8.37312e-05	11256
bin	8.45856e-05	10832
bin	8.544e-05	12272
bin	8.62944e-05	10128
bin	8.71488e-05	10680
bin	8.80032e-05	10320
bin	8.88576e-05	10168
bin	8.9712e-05	10224
bin	9.05664e-05	9088
bin	9.14208e-05	9296
bin	9.22752e-05	10600
bin	9.31296e-05	11688
bin	9.3984e-05	12648
bin	9.48384e-05	12600
bin	9.56928e-05	12320
bin	9.65472e-05	11424
bin	9.74016e-05	12152
bin	9.8256e-05	12864
bin	9.91104e-05	14632
bin	9.99648e-05	15096
bin	0.0001008192	14664
bin	0.0001016736	13912
bin	0.000102528	14240
bin	0.0001033824	15944
bin	0.0001042368	15256
bin	0.0001050912	16152
bin	0.0001059456	14280
bin	0.0001068	15064
bin	0.0001076544	15144
bin	0.0001085088	15248
bin	0.0001093632	12936
bin	0.0001102176	13448
bin	0.000111072	13168
bin	0.0001119264	13224
bin	0.0001127808	12888
bin	0.0001136352	14640
bin	0.0001144896	12864
bin	0.000115344	13048
bin	0.0001161984	13984
bin	0.0001170528	11792
bin	0.0001179072	12840
bin	0.0001187616	12976
bin	0.000119616	14256
bin	0.0001204704	16008
bin	0.0001213248	17840
bin	0.0001221792	19656
bin	0.0001230336	19832
bin	0.000123888	19376
bin	0.0001247424	21272
bin	0.0001255968	20216
bin	0.0001264512	22128
bin	0.0001273056	20928
bin	0.00012816	18544
bin	0.0001290144	19912
bin	0.0001298688	19008
bin	0.0001307232	17256
bin	0.0001315776	19264
bin	0.000132432	19968
bin	0.0001332864	19448
bin	0.0001341408	19008
bin	0.0001349952	17192
bin	0.0001358496	16960
bin	0.000136704	15744
bin	0.0001375584	15920
bin	0.0001384128	16736
bin	0.0001392672	15040
bin	0.0001401216	15432
bin	0.000140976	14320
bin	0.0001418304	15384
bin	0.0001426848	15296
bin	0.0001435392	14816
bin	0.0001443936	14760
bin	0.000145248	13936
bin	0.0001461024	13872
bin	0.0001469568	15800
bin	0.0001478112	16072
bin	0.0001486656	14840
bin	0.00014952	14584
bin	0.0001503744	13792
bin	0.0001512288	14176
bin	0.0001520832	13592
bin	0.0001529376	14064
bin	0.000153792	13512
bin	0.0001546464	13224
bin	0.0001555008	13960
bin	0.0001563552	13920
bin	0.0001572096	13968
bin	0.000158064	13808
bin	0.0001589184	14576
bin	0.0001597728	14760
bin	0.0001606272	14616
bin	0.0001614816	15640
bin	0.000162336	15040
bin	0.0001631904	15056
bin	0.0001640448	14848
bin	0.0001648992	14824
bin	0.0001657536	15432
bin	0.000166608	14840
bin	0.0001674624	14576
bin	0.0001683168	14520
bin	0.0001691712	15016
bin	0.0001700256	14888
bin	0.00017088	15704
bin	0.0001717344	15664
bin	0.0001725888	15752
bin	0.0001734432	14784
bin	0.0001742976	15480
bin	0.000175152	15168
bin	0.0001760064	15384
bin	0.0001768608	15976
bin	0.0001777152	16104
bin	0.0001785696	16856
bin	0.000179424	16080
bin	0.0001802784	17048
bin	0.0001811328	16848
bin	0.0001819872	17280
bin	0.0001828416	17528
bin	0.000183696	16632
bin	0.0001845504	17400
bin	0.0001854048	17224
bin	0.0001862592	18240
bin	0.0001871136	17968
bin	0.000187968	18544
bin	0.0001888224	19016
bin	0.0001896768	18776
bin	0.0001905312	17048
bin	0.0001913856	17864
bin	0.00019224	17912
bin	0.0001930944	17064
bin	0.0001939488	17008
bin	0.0001948032	16912
bin	0.0001956576	16984
bin	0.000196512	17040
bin	0.0001973664	17200
bin	0.0001982208	16832
bin	0.0001990752	17024
bin	0.0001999296	16832
bin	0.000200784	16328
bin	0.0002016384	16688
bin	0.0002024928	16656
bin	0.0002033472	16568
bin	0.0002042016	16040
bin	0.000205056	15720
bin	0.0002059104	15592
bin	0.0002067648	15752
bin	0.0002076192	14976
bin	0.0002084736	15176
bin	0.000209328	15256
bin	0.0002101824	15440
bin	0.0002110368	15312
bin	0.0002118912	15656
bin	0.0002127456	15736
bin	0.0002136	15016
bin	0.0002144544	14440
bin	0.0002153088	15600
bin	0.0002161632	16016
bin	0.0002170176	16168
bin	0.000217872	16144
bin	0.0002187264	16272
bin	0.0002195808	16424
bin	0.0002204352	16472
bin	0.0002212896	16664
bin	0.000222144	16664
bin	0.0002229984	16536
bin	0.0002238528	16096
bin	0.0002247072	15888
bin	0.0002255616	16072
bin	0.000226416	16016
bin	0.0002272704	15632
bin	0.0002281248	15704
bin	0.0002289792	16064
bin	0.0002298336	15904
bin	0.000230688	15248
bin	0.0002315424	15256
bin	0.0002323968	15016
bin	0.0002332512	15200
bin	0.0002341056	14760
bin	0.00023496	14696
bin	0.0002358144	15032
bin	0.0002366688	14552
bin	0.0002375232	14952
bin	0.0002383776	14712
bin	0.000239232	15336
bin	0.0002400864	14696
bin	0.0002409408	15600
bin	0.0002417952	15560
bin	0.0002426496	15592
bin	0.000243504	15680
bin	0.0002443584	15784
bin	0.0002452128	15920
bin	0.0002460672	15776
bin	0.0002469216	15968
bin	0.000247776	16416
bin	0.0002486304	16136
bin	0.0002494848	15944
bin	0.0002503392	16008
bin	0.0002511936	15760
bin	0.000252048	15744
bin	0.0002529024	15816
bin	0.0002537568	15264
bin	0.0002546112	15512
bin	0.0002554656	15304
bin	0.00025632	15640
bin	0.0002571744	15064
bin	0.0002580288	14704
bin	0.0002588832	14272
bin	0.0002597376	14376
bin	0.000260592	14224
bin	0.0002614464	14032
bin	0.0002623008	13912
bin	0.0002631552	13304
bin	0.0002640096	13520
bin	0.000264864	13288
bin	0.0002657184	13288
bin	0.0002665728	13752
bin	0.0002674272	13936
bin	0.0002682816	13736
bin	0.000269136	13776
bin	0.0002699904	14088
bin	0.0002708448	13760
bin	0.0002716992	13696
bin	0.0002725536	13448
bin	0.000273408	13888
bin	0.0002742624	14096
bin	0.0002751168	14584
bin	0.0002759712	14248
bin	0.0002768256	14320
bin	0.00027768	14200
bin	0.0002785344	14088
bin	0.0002793888	13728
bin	0.0002802432	13544
bin	0.0002810976	13888
bin	0.000281952	13376
bin	0.0002828064	13032
bin	0.0002836608	13016
bin	0.0002845152	13064
bin	0.0002853696	12672
bin	0.000286224	12176
bin	0.0002870784	12256
bin	0.0002879328	12232
bin	0.0002887872	12136
bin	0.0002896416	12432
bin	0.000290496	11968
bin	0.0002913504	12048
bin	0.0002922048	12536
bin	0.0002930592	12432
bin	0.0002939136	12448
bin	0.000294768	12728
bin	0.0002956224	12320
bin	0.0002964768	12424
bin	0.0002973312	13112
bin	0.0002981856	12792
bin	0.00029904	12688
bin	0.0002998944	12864
bin	0.0003007488	12952
bin	0.0003016032	13136
bin	0.0003024576	13496
bin	0.000303312	13080
bin	0.0003041664	13072
bin	0.0003050208	12832
bin	0.0003058752	12688
bin	0.0003067296	12560
bin	0.000307584	12752
bin	0.0003084384	12152
bin	0.0003092928	12016
bin	0.0003101472	11728
bin	0.0003110016	11760
bin	0.000311856	11480
bin	0.0003127104	10808
bin	0.0003135648	10248
bin	0.0003144192	10120
bin	0.0003152736	10080
bin	0.000316128	10256
bin	0.0003169824	10112
bin	0.0003178368	10048
bin	0.0003186912	9768
bin	0.0003195456	9488
bin	0.0003204	9624
bin	0.0003212544	9488
bin	0.0003221088	9184
bin	0.0003229632	9400
bin	0.0003238176	9256
bin	0.000324672	9256
bin	0.0003255264	9440
bin	0.0003263808	9448
bin	0.0003272352	9352
bin	0.0003280896	9240
bin	0.000328944	9200
bin	0.0003297984	9416
bin	0.0003306528	9136
bin	0.0003315072	8880
bin	0.0003323616	9216
bin	0.000333216	9176
bin	0.0003340704	9208
bin	0.0003349248	9048
bin	0.0003357792	8776
bin	0.0003366336	8944
bin	0.000337488	8528
bin	0.0003383424	8512
bin	0.0003391968	8560
bin	0.0003400512	8528
bin	0.0003409056	8608
bin	0.00034176	8448
bin	0.0003426144	8168
bin	0.0003434688	8064
bin	0.0003443232	7760
bin	0.0003451776	7480
bin	0.000346032	7712
bin	0.0003468864	7544
bin	0.0003477408	7400
bin	0.0003485952	7800
bin	0.0003494496	7592
bin	0.000350304	7576
bin	0.0003511584	7440
bin	0.0003520128	7440
bin	0.0003528672	7680
bin	0.0003537216	7816
bin	0.000354576	7712
bin	0.0003554304	7584
bin	0.0003562848	7880
bin	0.0003571392	7864
bin	0.0003579936	7944
bin	0.000358848	7872
bin	0.0003597024	7768
bin	0.0003605568	7912
bin	0.0003614112	7952
bin	0.0003622656	7848
bin	0.00036312	7784
bin	0.0003639744	7648
bin	0.0003648288	7752
bin	0.0003656832	7536
bin	0.0003665376	7392
bin	0.000367392	7384
bin	0.0003682464	7120
bin	0.0003691008	6984
bin	0.0003699552	6920
bin	0.0003708096	6808
bin	0.000371664	6600
bin	0.0003725184	6288
bin	0.0003733728	6128
bin	0.0003742272	5984
bin	0.0003750816	6040
bin	0.000375936	5640
bin	0.0003767904	5896
bin	0.0003776448	5656
bin	0.0003784992	5288
bin	0.0003793536	5296
bin	0.000380208	4992
bin	0.0003810624	4896
bin	0.0003819168	5128
bin	0.0003827712	5328
bin	0.0003836256	5080
bin	0.00038448	5408
bin	0.0003853344	5120
bin	0.0003861888	5088
bin	0.0003870432	5080
bin	0.0003878976	5104
bin	0.000388752	5240
bin	0.0003896064	5408
bin	0.0003904608	5304
bin	0.0003913152	5544
bin	0.0003921696	5688
bin	0.000393024	5552
bin	0.0003938784	5696
bin	0.0003947328	5600
bin	0.0003955872	5536
bin	0.0003964416	5552
bin	0.000397296	5448
bin	0.0003981504	5240
bin	0.0003990048	5072
bin	0.0003998592	4728
bin	0.0004007136	4528
bin	0.000401568	4416
bin	0.0004024224	4152
bin	0.0004032768	4176
bin	0.0004041312	4008
bin	0.0004049856	4312
bin	0.00040584	4136
bin	0.0004066944	4184
bin	0.0004075488	4176
bin	0.0004084032	3888
bin	0.0004092576	3744
bin	0.000410112	4120
bin	0.0004109664	4008
bin	0.0004118208	3928
bin	0.0004126752	3816
bin	0.0004135296	3648
bin	0.000414384	3360
bin	0.0004152384	3096
bin	0.0004160928	3240
bin	0.0004169472	3264
bin	0.0004178016	3152
bin	0.000418656	3296
bin	0.0004195104	3368
bin	0.0004203648	3312
bin	0.0004212192	3288
bin	0.0004220736	3096
bin	0.000422928	3168
bin	0.0004237824	3296
bin	0.0004246368	3200
bin	0.0004254912	3176
bin	0.0004263456	3336
bin	0.0004272	182992
