version 2
run Butterfly-19-20120709-10:43:08-22758
attr alg 3
attr buf 8
attr configname Butterfly
attr datetime 20120709-10:43:08
attr delta 1
attr experiment Butterfly
attr ext true
attr inifile altro.ini
attr iterationvars "$buf=8, $ext=true, $ofedge=1, $delta=1, $alg=3"
attr iterationvars2 "$buf=8, $ext=true, $ofedge=1, $delta=1, $alg=3, $repetition=0"
attr measurement "$buf=8, $ext=true, $ofedge=1, $delta=1, $alg=3"
attr network Torus3d_bub
attr ofedge 1
attr processid 22758
attr repetition 0
attr replication #0
attr resultdir altro-results
attr runnumber 19
attr seedset 19

scalar . 	alg 	3
scalar . 	buf 	8
scalar . 	delta 	1
scalar . 	ofedge 	1
scalar Torus3d_bub.timer 	#endTime 	0.000993328331804
scalar Torus3d_bub.timer 	#totalHops 	34654816
scalar Torus3d_bub.timer 	#totalPacks 	6291456
scalar Torus3d_bub.timer 	#totalDerouted 	4331217
scalar Torus3d_bub.timer 	#totalOutFlanked 	4127212
scalar Torus3d_bub.timer 	#totalCQRed 	204005
scalar Torus3d_bub.timer 	#LB 	0.000786432
scalar Torus3d_bub.timer 	#ratio 	0.79171405347087
statistic Torus3d_bub.timer 	"Hop Times"
field count 6291456
field mean 1.0331147115011e-05
field stddev 1.4179858104923e-05
field sum 64.997957503618
field sqrsum 0.0019365160998904
field min 4.04666525e-07
field max 0.000493850998823
bin	-INF	0
bin	0	0
bin	7.12e-08	0
bin	1.424e-07	0
bin	2.136e-07	0
bin	2.848e-07	0
bin	3.56e-07	163
bin	4.272e-07	5611
bin	4.984e-07	12084
bin	5.696e-07	11581
bin	6.408e-07	12413
bin	7.12e-07	17191
bin	7.832e-07	14699
bin	8.544e-07	23272
bin	9.256e-07	24228
bin	9.968e-07	21298
bin	1.068e-06	28282
bin	1.1392e-06	30588
bin	1.2104e-06	34483
bin	1.2816e-06	32362
bin	1.3528e-06	32447
bin	1.424e-06	31717
bin	1.4952e-06	41046
bin	1.5664e-06	34823
bin	1.6376e-06	36734
bin	1.7088e-06	46888
bin	1.78e-06	42559
bin	1.8512e-06	46857
bin	1.9224e-06	45872
bin	1.9936e-06	48085
bin	2.0648e-06	50830
bin	2.136e-06	49916
bin	2.2072e-06	51673
bin	2.2784e-06	58496
bin	2.3496e-06	55531
bin	2.4208e-06	59177
bin	2.492e-06	60769
bin	2.5632e-06	53853
bin	2.6344e-06	60846
bin	2.7056e-06	56042
bin	2.7768e-06	61080
bin	2.848e-06	53348
bin	2.9192e-06	55142
bin	2.9904e-06	51738
bin	3.0616e-06	57388
bin	3.1328e-06	52614
bin	3.204e-06	54078
bin	3.2752e-06	54382
bin	3.3464e-06	44807
bin	3.4176e-06	48707
bin	3.4888e-06	49117
bin	3.56e-06	50613
bin	3.6312e-06	44524
bin	3.7024e-06	45897
bin	3.7736e-06	46737
bin	3.8448e-06	45920
bin	3.916e-06	45588
bin	3.9872e-06	43397
bin	4.0584e-06	45788
bin	4.1296e-06	40452
bin	4.2008e-06	41537
bin	4.272e-06	44330
bin	4.3432e-06	40971
bin	4.4144e-06	36651
bin	4.4856e-06	36171
bin	4.5568e-06	35153
bin	4.628e-06	38538
bin	4.6992e-06	34969
bin	4.7704e-06	34927
bin	4.8416e-06	37737
bin	4.9128e-06	32536
bin	4.984e-06	35909
bin	5.0552e-06	32016
bin	5.1264e-06	39895
bin	5.1976e-06	31226
bin	5.2688e-06	35092
bin	5.34e-06	29951
bin	5.4112e-06	37305
bin	5.4824e-06	30857
bin	5.5536e-06	29084
bin	5.6248e-06	36008
bin	5.696e-06	31161
bin	5.7672e-06	30942
bin	5.8384e-06	28441
bin	5.9096e-06	32765
bin	5.9808e-06	26224
bin	6.052e-06	27960
bin	6.1232e-06	25233
bin	6.1944e-06	28924
bin	6.2656e-06	25173
bin	6.3368e-06	24846
bin	6.408e-06	28350
bin	6.4792e-06	23550
bin	6.5504e-06	24831
bin	6.6216e-06	23496
bin	6.6928e-06	27637
bin	6.764e-06	23486
bin	6.8352e-06	23515
bin	6.9064e-06	23337
bin	6.9776e-06	26570
bin	7.0488e-06	22986
bin	7.12e-06	22992
bin	7.1912e-06	26828
bin	7.2624e-06	21763
bin	7.3336e-06	23020
bin	7.4048e-06	21820
bin	7.476e-06	26038
bin	7.5472e-06	21513
bin	7.6184e-06	21292
bin	7.6896e-06	20838
bin	7.7608e-06	24507
bin	7.832e-06	20271
bin	7.9032e-06	19977
bin	7.9744e-06	23490
bin	8.0456e-06	18610
bin	8.1168e-06	19326
bin	8.188e-06	18633
bin	8.2592e-06	18392
bin	8.3304e-06	18093
bin	8.4016e-06	17953
bin	8.4728e-06	17302
bin	8.544e-06	21119
bin	8.6152e-06	16979
bin	8.6864e-06	19179
bin	8.7576e-06	23037
bin	8.8288e-06	16384
bin	8.9e-06	19010
bin	8.9712e-06	16524
bin	9.0424e-06	20645
bin	9.1136e-06	16289
bin	9.1848e-06	18641
bin	9.256e-06	16153
bin	9.3272e-06	22103
bin	9.3984e-06	16066
bin	9.4696e-06	18318
bin	9.5408e-06	18044
bin	9.612e-06	15536
bin	9.6832e-06	16439
bin	9.7544e-06	15898
bin	9.8256e-06	17706
bin	9.8968e-06	15418
bin	9.968e-06	15645
bin	1.00392e-05	15057
bin	1.01104e-05	18755
bin	1.01816e-05	14763
bin	1.02528e-05	14632
bin	1.0324e-05	16286
bin	1.03952e-05	13590
bin	1.04664e-05	14163
bin	1.05376e-05	13714
bin	1.06088e-05	13383
bin	1.068e-05	13021
bin	1.07512e-05	13356
bin	1.08224e-05	13021
bin	1.08936e-05	15069
bin	1.09648e-05	13177
bin	1.1036e-05	12976
bin	1.11072e-05	16864
bin	1.11784e-05	12379
bin	1.12496e-05	13123
bin	1.13208e-05	12795
bin	1.1392e-05	14468
bin	1.14632e-05	12237
bin	1.15344e-05	12432
bin	1.16056e-05	12199
bin	1.16768e-05	16219
bin	1.1748e-05	12381
bin	1.18192e-05	12386
bin	1.18904e-05	16522
bin	1.19616e-05	12016
bin	1.20328e-05	14707
bin	1.2104e-05	12227
bin	1.21752e-05	18130
bin	1.22464e-05	13772
bin	1.23176e-05	11925
bin	1.23888e-05	11820
bin	1.246e-05	15599
bin	1.25312e-05	11365
bin	1.26024e-05	12277
bin	1.26736e-05	15305
bin	1.27448e-05	13223
bin	1.2816e-05	11176
bin	1.28872e-05	12025
bin	1.29584e-05	12674
bin	1.30296e-05	11438
bin	1.31008e-05	10331
bin	1.3172e-05	9925
bin	1.32432e-05	9864
bin	1.33144e-05	9723
bin	1.33856e-05	9626
bin	1.34568e-05	9487
bin	1.3528e-05	10154
bin	1.35992e-05	9320
bin	1.36704e-05	9114
bin	1.37416e-05	8632
bin	1.38128e-05	8735
bin	1.3884e-05	8724
bin	1.39552e-05	8606
bin	1.40264e-05	8470
bin	1.40976e-05	8352
bin	1.41688e-05	8554
bin	1.424e-05	8433
bin	1.43112e-05	8083
bin	1.43824e-05	8463
bin	1.44536e-05	8355
bin	1.45248e-05	8212
bin	1.4596e-05	8159
bin	1.46672e-05	8299
bin	1.47384e-05	8120
bin	1.48096e-05	8189
bin	1.48808e-05	8121
bin	1.4952e-05	8129
bin	1.50232e-05	7924
bin	1.50944e-05	7832
bin	1.51656e-05	7969
bin	1.52368e-05	7934
bin	1.5308e-05	7661
bin	1.53792e-05	7768
bin	1.54504e-05	7749
bin	1.55216e-05	7583
bin	1.55928e-05	7497
bin	1.5664e-05	7288
bin	1.57352e-05	7317
bin	1.58064e-05	7215
bin	1.58776e-05	7274
bin	1.59488e-05	7203
bin	1.602e-05	7143
bin	1.60912e-05	7065
bin	1.61624e-05	7031
bin	1.62336e-05	7009
bin	1.63048e-05	6906
bin	1.6376e-05	6794
bin	1.64472e-05	6770
bin	1.65184e-05	6860
bin	1.65896e-05	6575
bin	1.66608e-05	6729
bin	1.6732e-05	6550
bin	1.68032e-05	6391
bin	1.68744e-05	6127
bin	1.69456e-05	6275
bin	1.70168e-05	6062
bin	1.7088e-05	6004
bin	1.71592e-05	5918
bin	1.72304e-05	5989
bin	1.73016e-05	5788
bin	1.73728e-05	5624
bin	1.7444e-05	5576
bin	1.75152e-05	5646
bin	1.75864e-05	5606
bin	1.76576e-05	5501
bin	1.77288e-05	5303
bin	1.78e-05	5260
bin	1.78712e-05	5268
bin	1.79424e-05	5248
bin	1.80136e-05	5245
bin	1.80848e-05	5206
bin	1.8156e-05	5033
bin	1.82272e-05	5045
bin	1.82984e-05	5057
bin	1.83696e-05	5067
bin	1.84408e-05	4864
bin	1.8512e-05	4930
bin	1.85832e-05	4821
bin	1.86544e-05	4778
bin	1.87256e-05	4758
bin	1.87968e-05	4618
bin	1.8868e-05	4766
bin	1.89392e-05	4766
bin	1.90104e-05	4652
bin	1.90816e-05	4582
bin	1.91528e-05	4630
bin	1.9224e-05	4627
bin	1.92952e-05	4482
bin	1.93664e-05	4506
bin	1.94376e-05	4637
bin	1.95088e-05	4496
bin	1.958e-05	4517
bin	1.96512e-05	4368
bin	1.97224e-05	4345
bin	1.97936e-05	4401
bin	1.98648e-05	4297
bin	1.9936e-05	4354
bin	2.00072e-05	4260
bin	2.00784e-05	4182
bin	2.01496e-05	4198
bin	2.02208e-05	4249
bin	2.0292e-05	4183
bin	2.03632e-05	4189
bin	2.04344e-05	4190
bin	2.05056e-05	4092
bin	2.05768e-05	4186
bin	2.0648e-05	4079
bin	2.07192e-05	4124
bin	2.07904e-05	4200
bin	2.08616e-05	4024
bin	2.09328e-05	4025
bin	2.1004e-05	4043
bin	2.10752e-05	3916
bin	2.11464e-05	3900
bin	2.12176e-05	3917
bin	2.12888e-05	3941
bin	2.136e-05	3862
bin	2.14312e-05	3781
bin	2.15024e-05	3922
bin	2.15736e-05	3851
bin	2.16448e-05	3806
bin	2.1716e-05	3709
bin	2.17872e-05	3771
bin	2.18584e-05	3734
bin	2.19296e-05	3730
bin	2.20008e-05	3657
bin	2.2072e-05	3619
bin	2.21432e-05	3654
bin	2.22144e-05	3595
bin	2.22856e-05	3557
bin	2.23568e-05	3616
bin	2.2428e-05	3521
bin	2.24992e-05	3571
bin	2.25704e-05	3590
bin	2.26416e-05	3475
bin	2.27128e-05	3454
bin	2.2784e-05	3463
bin	2.28552e-05	3524
bin	2.29264e-05	3429
bin	2.29976e-05	3553
bin	2.30688e-05	3627
bin	2.314e-05	3369
bin	2.32112e-05	3401
bin	2.32824e-05	3409
bin	2.33536e-05	3426
bin	2.34248e-05	3432
bin	2.3496e-05	3248
bin	2.35672e-05	3348
bin	2.36384e-05	3360
bin	2.37096e-05	3352
bin	2.37808e-05	3264
bin	2.3852e-05	3334
bin	2.39232e-05	3315
bin	2.39944e-05	3181
bin	2.40656e-05	3248
bin	2.41368e-05	3281
bin	2.4208e-05	3262
bin	2.42792e-05	3205
bin	2.43504e-05	3233
bin	2.44216e-05	3106
bin	2.44928e-05	3205
bin	2.4564e-05	3108
bin	2.46352e-05	3166
bin	2.47064e-05	3049
bin	2.47776e-05	3008
bin	2.48488e-05	2965
bin	2.492e-05	2973
bin	2.49912e-05	2966
bin	2.50624e-05	2830
bin	2.51336e-05	2968
bin	2.52048e-05	2814
bin	2.5276e-05	2864
bin	2.53472e-05	2687
bin	2.54184e-05	2793
bin	2.54896e-05	2679
bin	2.55608e-05	2711
bin	2.5632e-05	2614
bin	2.57032e-05	2624
bin	2.57744e-05	2643
bin	2.58456e-05	2630
bin	2.59168e-05	2560
bin	2.5988e-05	2443
bin	2.60592e-05	2516
bin	2.61304e-05	2435
bin	2.62016e-05	2485
bin	2.62728e-05	2444
bin	2.6344e-05	2378
bin	2.64152e-05	2387
bin	2.64864e-05	2304
bin	2.65576e-05	2354
bin	2.66288e-05	2323
bin	2.67e-05	2314
bin	2.67712e-05	2271
bin	2.68424e-05	2331
bin	2.69136e-05	2167
bin	2.69848e-05	2302
bin	2.7056e-05	2180
bin	2.71272e-05	2187
bin	2.71984e-05	2188
bin	2.72696e-05	2181
bin	2.73408e-05	2116
bin	2.7412e-05	2066
bin	2.74832e-05	2154
bin	2.75544e-05	2021
bin	2.76256e-05	2103
bin	2.76968e-05	1962
bin	2.7768e-05	2076
bin	2.78392e-05	2009
bin	2.79104e-05	2000
bin	2.79816e-05	2021
bin	2.80528e-05	2010
bin	2.8124e-05	1990
bin	2.81952e-05	1933
bin	2.82664e-05	2007
bin	2.83376e-05	1903
bin	2.84088e-05	1981
bin	2.848e-05	1810
bin	2.85512e-05	1946
bin	2.86224e-05	1875
bin	2.86936e-05	1803
bin	2.87648e-05	1870
bin	2.8836e-05	1873
bin	2.89072e-05	1785
bin	2.89784e-05	1822
bin	2.90496e-05	1888
bin	2.91208e-05	1842
bin	2.9192e-05	1866
bin	2.92632e-05	1744
bin	2.93344e-05	1773
bin	2.94056e-05	1702
bin	2.94768e-05	1657
bin	2.9548e-05	1688
bin	2.96192e-05	1730
bin	2.96904e-05	1733
bin	2.97616e-05	1686
bin	2.98328e-05	1674
bin	2.9904e-05	1628
bin	2.99752e-05	1688
bin	3.00464e-05	1647
bin	3.01176e-05	1658
bin	3.01888e-05	1550
bin	3.026e-05	1531
bin	3.03312e-05	1548
bin	3.04024e-05	1577
bin	3.04736e-05	1571
bin	3.05448e-05	1530
bin	3.0616e-05	1542
bin	3.06872e-05	1482
bin	3.07584e-05	1543
bin	3.08296e-05	1521
bin	3.09008e-05	1539
bin	3.0972e-05	1509
bin	3.10432e-05	1471
bin	3.11144e-05	1542
bin	3.11856e-05	1442
bin	3.12568e-05	1468
bin	3.1328e-05	1413
bin	3.13992e-05	1469
bin	3.14704e-05	1369
bin	3.15416e-05	1430
bin	3.16128e-05	1376
bin	3.1684e-05	1340
bin	3.17552e-05	1355
bin	3.18264e-05	1337
bin	3.18976e-05	1319
bin	3.19688e-05	1314
bin	3.204e-05	1369
bin	3.21112e-05	1252
bin	3.21824e-05	1298
bin	3.22536e-05	1267
bin	3.23248e-05	1272
bin	3.2396e-05	1215
bin	3.24672e-05	1273
bin	3.25384e-05	1269
bin	3.26096e-05	1192
bin	3.26808e-05	1232
bin	3.2752e-05	1169
bin	3.28232e-05	1173
bin	3.28944e-05	1223
bin	3.29656e-05	1216
bin	3.30368e-05	1138
bin	3.3108e-05	1175
bin	3.31792e-05	1144
bin	3.32504e-05	1100
bin	3.33216e-05	1125
bin	3.33928e-05	1085
bin	3.3464e-05	1075
bin	3.35352e-05	1065
bin	3.36064e-05	1103
bin	3.36776e-05	1049
bin	3.37488e-05	1096
bin	3.382e-05	984
bin	3.38912e-05	1051
bin	3.39624e-05	969
bin	3.40336e-05	1043
bin	3.41048e-05	1035
bin	3.4176e-05	953
bin	3.42472e-05	999
bin	3.43184e-05	1000
bin	3.43896e-05	946
bin	3.44608e-05	983
bin	3.4532e-05	984
bin	3.46032e-05	928
bin	3.46744e-05	981
bin	3.47456e-05	906
bin	3.48168e-05	941
bin	3.4888e-05	898
bin	3.49592e-05	922
bin	3.50304e-05	929
bin	3.51016e-05	969
bin	3.51728e-05	883
bin	3.5244e-05	911
bin	3.53152e-05	923
bin	3.53864e-05	831
bin	3.54576e-05	917
bin	3.55288e-05	873
bin	3.56e-05	249783
statistic Torus3d_bub.timer 	"Life Times"
field count 6291456
field mean 4.5619627910172e-05
field stddev 4.2805899048016e-05
field sum 287.01388173322
field sqrsum 0.024621582559602
field min 5.62665745e-07
field max 0.000547757998974
bin	-INF	0
bin	0	11037
bin	8.544e-07	55018
bin	1.7088e-06	80573
bin	2.5632e-06	73420
bin	3.4176e-06	82831
bin	4.272e-06	87357
bin	5.1264e-06	95249
bin	5.9808e-06	90584
bin	6.8352e-06	91893
bin	7.6896e-06	97866
bin	8.544e-06	110417
bin	9.3984e-06	108838
bin	1.02528e-05	105075
bin	1.11072e-05	123651
bin	1.19616e-05	112161
bin	1.2816e-05	105268
bin	1.36704e-05	104918
bin	1.45248e-05	101689
bin	1.53792e-05	107201
bin	1.62336e-05	102069
bin	1.7088e-05	103964
bin	1.79424e-05	101218
bin	1.87968e-05	95956
bin	1.96512e-05	92389
bin	2.05056e-05	98470
bin	2.136e-05	95556
bin	2.22144e-05	97598
bin	2.30688e-05	97226
bin	2.39232e-05	94263
bin	2.47776e-05	86559
bin	2.5632e-05	77200
bin	2.64864e-05	70660
bin	2.73408e-05	64639
bin	2.81952e-05	61905
bin	2.90496e-05	59818
bin	2.9904e-05	57154
bin	3.07584e-05	53696
bin	3.16128e-05	50790
bin	3.24672e-05	46776
bin	3.33216e-05	43646
bin	3.4176e-05	41250
bin	3.50304e-05	39175
bin	3.58848e-05	37785
bin	3.67392e-05	37528
bin	3.75936e-05	37763
bin	3.8448e-05	38071
bin	3.93024e-05	38765
bin	4.01568e-05	38158
bin	4.10112e-05	39082
bin	4.18656e-05	39397
bin	4.272e-05	39347
bin	4.35744e-05	39761
bin	4.44288e-05	40414
bin	4.52832e-05	40050
bin	4.61376e-05	40353
bin	4.6992e-05	40447
bin	4.78464e-05	40465
bin	4.87008e-05	40744
bin	4.95552e-05	40304
bin	5.04096e-05	38952
bin	5.1264e-05	37527
bin	5.21184e-05	35601
bin	5.29728e-05	33842
bin	5.38272e-05	33214
bin	5.46816e-05	32251
bin	5.5536e-05	31205
bin	5.63904e-05	30468
bin	5.72448e-05	29713
bin	5.80992e-05	29038
bin	5.89536e-05	28090
bin	5.9808e-05	27861
bin	6.06624e-05	27892
bin	6.15168e-05	27634
bin	6.23712e-05	28117
bin	6.32256e-05	28288
bin	6.408e-05	28550
bin	6.49344e-05	28603
bin	6.57888e-05	28372
bin	6.66432e-05	28737
bin	6.74976e-05	28455
bin	6.8352e-05	29026
bin	6.92064e-05	28705
bin	7.00608e-05	29399
bin	7.09152e-05	29345
bin	7.17696e-05	29548
bin	7.2624e-05	29671
bin	7.34784e-05	29668
bin	7.43328e-05	29682
bin	7.51872e-05	29075
bin	7.60416e-05	28416
bin	7.6896e-05	27850
bin	7.77504e-05	26717
bin	7.86048e-05	25379
bin	7.94592e-05	24530
bin	8.03136e-05	23773
bin	8.1168e-05	22795
bin	8.20224e-05	22088
bin	8.28768e-05	21348
bin	8.37312e-05	20684
bin	8.45856e-05	19962
bin	8.544e-05	19747
bin	8.62944e-05	19696
bin	8.71488e-05	19707
bin	8.80032e-05	19306
bin	8.88576e-05	19294
bin	8.9712e-05	19223
bin	9.05664e-05	18930
bin	9.14208e-05	18800
bin	9.22752e-05	18826
bin	9.31296e-05	18544
bin	9.3984e-05	18038
bin	9.48384e-05	18268
bin	9.56928e-05	18095
bin	9.65472e-05	17937
bin	9.74016e-05	17596
bin	9.8256e-05	17422
bin	9.91104e-05	16876
bin	9.99648e-05	16049
bin	0.0001008192	15320
bin	0.0001016736	14815
bin	0.000102528	14006
bin	0.0001033824	13504
bin	0.0001042368	12781
bin	0.0001050912	12474
bin	0.0001059456	12010
bin	0.0001068	11536
bin	0.0001076544	11250
bin	0.0001085088	10931
bin	0.0001093632	10203
bin	0.0001102176	9889
bin	0.000111072	9950
bin	0.0001119264	9944
bin	0.0001127808	9602
bin	0.0001136352	9530
bin	0.0001144896	9335
bin	0.000115344	9074
bin	0.0001161984	9245
bin	0.0001170528	8877
bin	0.0001179072	8610
bin	0.0001187616	8631
bin	0.000119616	8470
bin	0.0001204704	8241
bin	0.0001213248	8087
bin	0.0001221792	8025
bin	0.0001230336	8129
bin	0.000123888	7755
bin	0.0001247424	7649
bin	0.0001255968	7116
bin	0.0001264512	7023
bin	0.0001273056	6638
bin	0.00012816	6476
bin	0.0001290144	6019
bin	0.0001298688	5818
bin	0.0001307232	5373
bin	0.0001315776	5406
bin	0.000132432	5318
bin	0.0001332864	5156
bin	0.0001341408	4933
bin	0.0001349952	4851
bin	0.0001358496	4718
bin	0.000136704	4644
bin	0.0001375584	4675
bin	0.0001384128	4616
bin	0.0001392672	4561
bin	0.0001401216	4532
bin	0.000140976	4426
bin	0.0001418304	4392
bin	0.0001426848	4454
bin	0.0001435392	4457
bin	0.0001443936	4388
bin	0.000145248	4436
bin	0.0001461024	4479
bin	0.0001469568	4468
bin	0.0001478112	4399
bin	0.0001486656	4278
bin	0.00014952	4094
bin	0.0001503744	4163
bin	0.0001512288	3924
bin	0.0001520832	3808
bin	0.0001529376	3743
bin	0.000153792	3634
bin	0.0001546464	3645
bin	0.0001555008	3548
bin	0.0001563552	3562
bin	0.0001572096	3321
bin	0.000158064	3233
bin	0.0001589184	3139
bin	0.0001597728	3161
bin	0.0001606272	3091
bin	0.0001614816	3072
bin	0.000162336	3115
bin	0.0001631904	3116
bin	0.0001640448	3072
bin	0.0001648992	3055
bin	0.0001657536	3069
bin	0.000166608	3054
bin	0.0001674624	2936
bin	0.0001683168	2921
bin	0.0001691712	2881
bin	0.0001700256	2866
bin	0.00017088	2885
bin	0.0001717344	2735
bin	0.0001725888	2811
bin	0.0001734432	2718
bin	0.0001742976	2698
bin	0.000175152	2707
bin	0.0001760064	2536
bin	0.0001768608	2466
bin	0.0001777152	2336
bin	0.0001785696	2277
bin	0.000179424	2341
bin	0.0001802784	2200
bin	0.0001811328	2085
bin	0.0001819872	2099
bin	0.0001828416	2016
bin	0.000183696	2039
bin	0.0001845504	1998
bin	0.0001854048	1886
bin	0.0001862592	1875
bin	0.0001871136	1834
bin	0.000187968	1823
bin	0.0001888224	1774
bin	0.0001896768	1743
bin	0.0001905312	1726
bin	0.0001913856	1713
bin	0.00019224	1632
bin	0.0001930944	1683
bin	0.0001939488	1651
bin	0.0001948032	1570
bin	0.0001956576	1575
bin	0.000196512	1495
bin	0.0001973664	1456
bin	0.0001982208	1388
bin	0.0001990752	1432
bin	0.0001999296	1384
bin	0.000200784	1277
bin	0.0002016384	1173
bin	0.0002024928	1168
bin	0.0002033472	1064
bin	0.0002042016	1091
bin	0.000205056	1052
bin	0.0002059104	1071
bin	0.0002067648	1065
bin	0.0002076192	967
bin	0.0002084736	889
bin	0.000209328	886
bin	0.0002101824	888
bin	0.0002110368	887
bin	0.0002118912	882
bin	0.0002127456	868
bin	0.0002136	803
bin	0.0002144544	788
bin	0.0002153088	764
bin	0.0002161632	710
bin	0.0002170176	703
bin	0.000217872	705
bin	0.0002187264	690
bin	0.0002195808	665
bin	0.0002204352	625
bin	0.0002212896	620
bin	0.000222144	615
bin	0.0002229984	679
bin	0.0002238528	626
bin	0.0002247072	572
bin	0.0002255616	573
bin	0.000226416	547
bin	0.0002272704	504
bin	0.0002281248	521
bin	0.0002289792	500
bin	0.0002298336	469
bin	0.000230688	449
bin	0.0002315424	447
bin	0.0002323968	392
bin	0.0002332512	415
bin	0.0002341056	442
bin	0.00023496	429
bin	0.0002358144	378
bin	0.0002366688	357
bin	0.0002375232	340
bin	0.0002383776	368
bin	0.000239232	322
bin	0.0002400864	322
bin	0.0002409408	383
bin	0.0002417952	358
bin	0.0002426496	334
bin	0.000243504	356
bin	0.0002443584	381
bin	0.0002452128	335
bin	0.0002460672	307
bin	0.0002469216	323
bin	0.000247776	303
bin	0.0002486304	316
bin	0.0002494848	306
bin	0.0002503392	301
bin	0.0002511936	303
bin	0.000252048	274
bin	0.0002529024	212
bin	0.0002537568	217
bin	0.0002546112	222
bin	0.0002554656	244
bin	0.00025632	217
bin	0.0002571744	208
bin	0.0002580288	238
bin	0.0002588832	202
bin	0.0002597376	204
bin	0.000260592	198
bin	0.0002614464	184
bin	0.0002623008	204
bin	0.0002631552	204
bin	0.0002640096	179
bin	0.000264864	189
bin	0.0002657184	200
bin	0.0002665728	200
bin	0.0002674272	164
bin	0.0002682816	182
bin	0.000269136	171
bin	0.0002699904	185
bin	0.0002708448	172
bin	0.0002716992	180
bin	0.0002725536	161
bin	0.000273408	129
bin	0.0002742624	140
bin	0.0002751168	128
bin	0.0002759712	131
bin	0.0002768256	117
bin	0.00027768	132
bin	0.0002785344	124
bin	0.0002793888	107
bin	0.0002802432	99
bin	0.0002810976	114
bin	0.000281952	97
bin	0.0002828064	101
bin	0.0002836608	128
bin	0.0002845152	131
bin	0.0002853696	103
bin	0.000286224	112
bin	0.0002870784	104
bin	0.0002879328	109
bin	0.0002887872	92
bin	0.0002896416	106
bin	0.000290496	107
bin	0.0002913504	109
bin	0.0002922048	87
bin	0.0002930592	91
bin	0.0002939136	105
bin	0.000294768	99
bin	0.0002956224	117
bin	0.0002964768	91
bin	0.0002973312	81
bin	0.0002981856	83
bin	0.00029904	81
bin	0.0002998944	71
bin	0.0003007488	68
bin	0.0003016032	70
bin	0.0003024576	65
bin	0.000303312	60
bin	0.0003041664	68
bin	0.0003050208	53
bin	0.0003058752	54
bin	0.0003067296	41
bin	0.000307584	76
bin	0.0003084384	69
bin	0.0003092928	66
bin	0.0003101472	54
bin	0.0003110016	59
bin	0.000311856	55
bin	0.0003127104	41
bin	0.0003135648	53
bin	0.0003144192	47
bin	0.0003152736	43
bin	0.000316128	46
bin	0.0003169824	41
bin	0.0003178368	49
bin	0.0003186912	49
bin	0.0003195456	49
bin	0.0003204	48
bin	0.0003212544	36
bin	0.0003221088	35
bin	0.0003229632	36
bin	0.0003238176	46
bin	0.000324672	41
bin	0.0003255264	49
bin	0.0003263808	51
bin	0.0003272352	46
bin	0.0003280896	42
bin	0.000328944	36
bin	0.0003297984	35
bin	0.0003306528	43
bin	0.0003315072	34
bin	0.0003323616	33
bin	0.000333216	31
bin	0.0003340704	28
bin	0.0003349248	31
bin	0.0003357792	37
bin	0.0003366336	35
bin	0.000337488	37
bin	0.0003383424	37
bin	0.0003391968	37
bin	0.0003400512	36
bin	0.0003409056	28
bin	0.00034176	33
bin	0.0003426144	33
bin	0.0003434688	36
bin	0.0003443232	48
bin	0.0003451776	35
bin	0.000346032	27
bin	0.0003468864	31
bin	0.0003477408	38
bin	0.0003485952	40
bin	0.0003494496	39
bin	0.000350304	39
bin	0.0003511584	29
bin	0.0003520128	39
bin	0.0003528672	34
bin	0.0003537216	33
bin	0.000354576	29
bin	0.0003554304	30
bin	0.0003562848	34
bin	0.0003571392	30
bin	0.0003579936	29
bin	0.000358848	22
bin	0.0003597024	23
bin	0.0003605568	31
bin	0.0003614112	23
bin	0.0003622656	17
bin	0.00036312	24
bin	0.0003639744	21
bin	0.0003648288	22
bin	0.0003656832	27
bin	0.0003665376	34
bin	0.000367392	28
bin	0.0003682464	29
bin	0.0003691008	31
bin	0.0003699552	25
bin	0.0003708096	33
bin	0.000371664	35
bin	0.0003725184	30
bin	0.0003733728	31
bin	0.0003742272	33
bin	0.0003750816	29
bin	0.000375936	30
bin	0.0003767904	22
bin	0.0003776448	19
bin	0.0003784992	19
bin	0.0003793536	24
bin	0.000380208	27
bin	0.0003810624	18
bin	0.0003819168	27
bin	0.0003827712	29
bin	0.0003836256	22
bin	0.00038448	19
bin	0.0003853344	26
bin	0.0003861888	9
bin	0.0003870432	16
bin	0.0003878976	16
bin	0.000388752	22
bin	0.0003896064	15
bin	0.0003904608	12
bin	0.0003913152	10
bin	0.0003921696	15
bin	0.000393024	14
bin	0.0003938784	7
bin	0.0003947328	5
bin	0.0003955872	13
bin	0.0003964416	12
bin	0.000397296	12
bin	0.0003981504	15
bin	0.0003990048	9
bin	0.0003998592	6
bin	0.0004007136	9
bin	0.000401568	10
bin	0.0004024224	18
bin	0.0004032768	9
bin	0.0004041312	18
bin	0.0004049856	19
bin	0.00040584	16
bin	0.0004066944	20
bin	0.0004075488	12
bin	0.0004084032	18
bin	0.0004092576	10
bin	0.000410112	16
bin	0.0004109664	16
bin	0.0004118208	12
bin	0.0004126752	8
bin	0.0004135296	11
bin	0.000414384	9
bin	0.0004152384	7
bin	0.0004160928	7
bin	0.0004169472	5
bin	0.0004178016	6
bin	0.000418656	4
bin	0.0004195104	2
bin	0.0004203648	3
bin	0.0004212192	3
bin	0.0004220736	5
bin	0.000422928	6
bin	0.0004237824	13
bin	0.0004246368	11
bin	0.0004254912	6
bin	0.0004263456	9
bin	0.0004272	264
