version 2
run Butterfly-125-20120709-13:38:00-24168
attr alg 1
attr buf 8
attr configname Butterfly
attr datetime 20120709-13:38:00
attr delta 1.6
attr experiment Butterfly
attr ext false
attr inifile altro.ini
attr iterationvars "$buf=8, $ext=false, $ofedge=1, $delta=1.6, $alg=1"
attr iterationvars2 "$buf=8, $ext=false, $ofedge=1, $delta=1.6, $alg=1, $repetition=0"
attr measurement "$buf=8, $ext=false, $ofedge=1, $delta=1.6, $alg=1"
attr network Torus3d_bub
attr ofedge 1
attr processid 24168
attr repetition 0
attr replication #0
attr resultdir altro-results
attr runnumber 125
attr seedset 125

scalar . 	alg 	1
scalar . 	buf 	8
scalar . 	delta 	1.6
scalar . 	ofedge 	1
scalar Torus3d_bub.timer 	#endTime 	0.00089988833195
scalar Torus3d_bub.timer 	#totalHops 	35743775
scalar Torus3d_bub.timer 	#totalPacks 	6291456
scalar Torus3d_bub.timer 	#totalDerouted 	4191049
scalar Torus3d_bub.timer 	#totalOutFlanked 	4191049
scalar Torus3d_bub.timer 	#totalCQRed 	0
scalar Torus3d_bub.timer 	#LB 	0.000786432
scalar Torus3d_bub.timer 	#ratio 	0.87392176571048
statistic Torus3d_bub.timer 	"Hop Times"
field count 6291456
field mean 3.0758679579686e-05
field stddev 3.9402519142136e-05
field sum 193.5168791937
field sqrsum 0.015720175710773
field min 4.36055531e-07
field max 0.000538771665652
bin	-INF	0
bin	0	0
bin	7.12e-08	0
bin	1.424e-07	0
bin	2.136e-07	0
bin	2.848e-07	0
bin	3.56e-07	0
bin	4.272e-07	27
bin	4.984e-07	6478
bin	5.696e-07	2477
bin	6.408e-07	2624
bin	7.12e-07	6534
bin	7.832e-07	2012
bin	8.544e-07	3272
bin	9.256e-07	6125
bin	9.968e-07	9215
bin	1.068e-06	5194
bin	1.1392e-06	10020
bin	1.2104e-06	5683
bin	1.2816e-06	11912
bin	1.3528e-06	6093
bin	1.424e-06	6894
bin	1.4952e-06	14245
bin	1.5664e-06	5940
bin	1.6376e-06	7789
bin	1.7088e-06	8033
bin	1.78e-06	16824
bin	1.8512e-06	11812
bin	1.9224e-06	14815
bin	1.9936e-06	10241
bin	2.0648e-06	19693
bin	2.136e-06	11414
bin	2.2072e-06	14905
bin	2.2784e-06	23145
bin	2.3496e-06	16283
bin	2.4208e-06	19134
bin	2.492e-06	16047
bin	2.5632e-06	20903
bin	2.6344e-06	18239
bin	2.7056e-06	15444
bin	2.7768e-06	16884
bin	2.848e-06	17231
bin	2.9192e-06	14662
bin	2.9904e-06	13078
bin	3.0616e-06	22131
bin	3.1328e-06	15615
bin	3.204e-06	17856
bin	3.2752e-06	15164
bin	3.3464e-06	16647
bin	3.4176e-06	17937
bin	3.4888e-06	12542
bin	3.56e-06	14366
bin	3.6312e-06	18027
bin	3.7024e-06	15890
bin	3.7736e-06	11312
bin	3.8448e-06	20002
bin	3.916e-06	10701
bin	3.9872e-06	13086
bin	4.0584e-06	13323
bin	4.1296e-06	16824
bin	4.2008e-06	16848
bin	4.272e-06	12599
bin	4.3432e-06	11095
bin	4.4144e-06	14667
bin	4.4856e-06	10771
bin	4.5568e-06	10965
bin	4.628e-06	15778
bin	4.6992e-06	11085
bin	4.7704e-06	11210
bin	4.8416e-06	11632
bin	4.9128e-06	15268
bin	4.984e-06	11380
bin	5.0552e-06	11305
bin	5.1264e-06	11706
bin	5.1976e-06	15288
bin	5.2688e-06	13355
bin	5.34e-06	11385
bin	5.4112e-06	15838
bin	5.4824e-06	10743
bin	5.5536e-06	12283
bin	5.6248e-06	11318
bin	5.696e-06	15172
bin	5.7672e-06	10899
bin	5.8384e-06	12048
bin	5.9096e-06	11280
bin	5.9808e-06	14634
bin	6.052e-06	10731
bin	6.1232e-06	11970
bin	6.1944e-06	15197
bin	6.2656e-06	10444
bin	6.3368e-06	11677
bin	6.408e-06	10976
bin	6.4792e-06	14694
bin	6.5504e-06	10745
bin	6.6216e-06	11455
bin	6.6928e-06	12102
bin	6.764e-06	15688
bin	6.8352e-06	10646
bin	6.9064e-06	11721
bin	6.9776e-06	16159
bin	7.0488e-06	10413
bin	7.12e-06	11742
bin	7.1912e-06	11151
bin	7.2624e-06	14733
bin	7.3336e-06	11213
bin	7.4048e-06	11250
bin	7.476e-06	11405
bin	7.5472e-06	15049
bin	7.6184e-06	10630
bin	7.6896e-06	10719
bin	7.7608e-06	15274
bin	7.832e-06	10705
bin	7.9032e-06	10727
bin	7.9744e-06	11085
bin	8.0456e-06	10756
bin	8.1168e-06	10498
bin	8.188e-06	11019
bin	8.2592e-06	11062
bin	8.3304e-06	14869
bin	8.4016e-06	11003
bin	8.4728e-06	10908
bin	8.544e-06	15151
bin	8.6152e-06	10707
bin	8.6864e-06	13010
bin	8.7576e-06	10915
bin	8.8288e-06	14938
bin	8.9e-06	10748
bin	8.9712e-06	10719
bin	9.0424e-06	13143
bin	9.1136e-06	14851
bin	9.1848e-06	11891
bin	9.256e-06	10930
bin	9.3272e-06	12021
bin	9.3984e-06	10802
bin	9.4696e-06	13139
bin	9.5408e-06	11133
bin	9.612e-06	12938
bin	9.6832e-06	10882
bin	9.7544e-06	10872
bin	9.8256e-06	11359
bin	9.8968e-06	14961
bin	9.968e-06	10812
bin	1.00392e-05	11069
bin	1.01104e-05	13184
bin	1.01816e-05	11112
bin	1.02528e-05	11095
bin	1.0324e-05	11392
bin	1.03952e-05	11093
bin	1.04664e-05	11255
bin	1.05376e-05	11259
bin	1.06088e-05	11539
bin	1.068e-05	13361
bin	1.07512e-05	11593
bin	1.08224e-05	11223
bin	1.08936e-05	15384
bin	1.09648e-05	11353
bin	1.1036e-05	11368
bin	1.11072e-05	11678
bin	1.11784e-05	13384
bin	1.12496e-05	11351
bin	1.13208e-05	11243
bin	1.1392e-05	11722
bin	1.14632e-05	15713
bin	1.15344e-05	11745
bin	1.16056e-05	11348
bin	1.16768e-05	13753
bin	1.1748e-05	11407
bin	1.18192e-05	11494
bin	1.18904e-05	11651
bin	1.19616e-05	15505
bin	1.20328e-05	11642
bin	1.2104e-05	11605
bin	1.21752e-05	11728
bin	1.22464e-05	13584
bin	1.23176e-05	11647
bin	1.23888e-05	11520
bin	1.246e-05	15980
bin	1.25312e-05	11466
bin	1.26024e-05	11629
bin	1.26736e-05	11784
bin	1.27448e-05	13466
bin	1.2816e-05	11522
bin	1.28872e-05	11758
bin	1.29584e-05	11572
bin	1.30296e-05	11178
bin	1.31008e-05	11635
bin	1.3172e-05	11261
bin	1.32432e-05	11653
bin	1.33144e-05	11394
bin	1.33856e-05	11697
bin	1.34568e-05	11456
bin	1.3528e-05	11293
bin	1.35992e-05	11509
bin	1.36704e-05	11515
bin	1.37416e-05	11512
bin	1.38128e-05	11470
bin	1.3884e-05	11516
bin	1.39552e-05	11328
bin	1.40264e-05	11247
bin	1.40976e-05	11113
bin	1.41688e-05	11285
bin	1.424e-05	11435
bin	1.43112e-05	11158
bin	1.43824e-05	11235
bin	1.44536e-05	11137
bin	1.45248e-05	11098
bin	1.4596e-05	11150
bin	1.46672e-05	11209
bin	1.47384e-05	11088
bin	1.48096e-05	11266
bin	1.48808e-05	11249
bin	1.4952e-05	11157
bin	1.50232e-05	11180
bin	1.50944e-05	11022
bin	1.51656e-05	11066
bin	1.52368e-05	11231
bin	1.5308e-05	11007
bin	1.53792e-05	11264
bin	1.54504e-05	11185
bin	1.55216e-05	11077
bin	1.55928e-05	11087
bin	1.5664e-05	10934
bin	1.57352e-05	10957
bin	1.58064e-05	11090
bin	1.58776e-05	11032
bin	1.59488e-05	11087
bin	1.602e-05	10866
bin	1.60912e-05	10763
bin	1.61624e-05	10926
bin	1.62336e-05	10806
bin	1.63048e-05	10904
bin	1.6376e-05	10733
bin	1.64472e-05	10925
bin	1.65184e-05	11007
bin	1.65896e-05	11106
bin	1.66608e-05	10854
bin	1.6732e-05	10830
bin	1.68032e-05	10725
bin	1.68744e-05	10948
bin	1.69456e-05	10674
bin	1.70168e-05	10789
bin	1.7088e-05	10645
bin	1.71592e-05	10725
bin	1.72304e-05	10628
bin	1.73016e-05	10718
bin	1.73728e-05	10551
bin	1.7444e-05	10560
bin	1.75152e-05	10545
bin	1.75864e-05	10584
bin	1.76576e-05	10424
bin	1.77288e-05	10502
bin	1.78e-05	10716
bin	1.78712e-05	10173
bin	1.79424e-05	10480
bin	1.80136e-05	10462
bin	1.80848e-05	10573
bin	1.8156e-05	10320
bin	1.82272e-05	10409
bin	1.82984e-05	10268
bin	1.83696e-05	10396
bin	1.84408e-05	10281
bin	1.8512e-05	10216
bin	1.85832e-05	10537
bin	1.86544e-05	10344
bin	1.87256e-05	10352
bin	1.87968e-05	10484
bin	1.8868e-05	10316
bin	1.89392e-05	10202
bin	1.90104e-05	10281
bin	1.90816e-05	10131
bin	1.91528e-05	10295
bin	1.9224e-05	10124
bin	1.92952e-05	10202
bin	1.93664e-05	10328
bin	1.94376e-05	10073
bin	1.95088e-05	10058
bin	1.958e-05	9993
bin	1.96512e-05	10172
bin	1.97224e-05	10006
bin	1.97936e-05	10175
bin	1.98648e-05	9729
bin	1.9936e-05	10176
bin	2.00072e-05	9731
bin	2.00784e-05	9845
bin	2.01496e-05	9961
bin	2.02208e-05	9796
bin	2.0292e-05	9817
bin	2.03632e-05	10086
bin	2.04344e-05	9725
bin	2.05056e-05	9760
bin	2.05768e-05	9592
bin	2.0648e-05	9508
bin	2.07192e-05	9711
bin	2.07904e-05	9549
bin	2.08616e-05	9514
bin	2.09328e-05	9482
bin	2.1004e-05	9461
bin	2.10752e-05	9350
bin	2.11464e-05	9310
bin	2.12176e-05	9227
bin	2.12888e-05	9559
bin	2.136e-05	9461
bin	2.14312e-05	9423
bin	2.15024e-05	9476
bin	2.15736e-05	9315
bin	2.16448e-05	9216
bin	2.1716e-05	9338
bin	2.17872e-05	9120
bin	2.18584e-05	9127
bin	2.19296e-05	9038
bin	2.20008e-05	9208
bin	2.2072e-05	8985
bin	2.21432e-05	9022
bin	2.22144e-05	9000
bin	2.22856e-05	9018
bin	2.23568e-05	8731
bin	2.2428e-05	8873
bin	2.24992e-05	8905
bin	2.25704e-05	8849
bin	2.26416e-05	8570
bin	2.27128e-05	8865
bin	2.2784e-05	8620
bin	2.28552e-05	8584
bin	2.29264e-05	8654
bin	2.29976e-05	8451
bin	2.30688e-05	8638
bin	2.314e-05	8596
bin	2.32112e-05	8455
bin	2.32824e-05	8737
bin	2.33536e-05	8518
bin	2.34248e-05	8327
bin	2.3496e-05	8528
bin	2.35672e-05	8352
bin	2.36384e-05	8376
bin	2.37096e-05	8300
bin	2.37808e-05	8341
bin	2.3852e-05	8261
bin	2.39232e-05	8240
bin	2.39944e-05	8156
bin	2.40656e-05	8017
bin	2.41368e-05	8127
bin	2.4208e-05	8076
bin	2.42792e-05	8281
bin	2.43504e-05	7976
bin	2.44216e-05	8048
bin	2.44928e-05	7924
bin	2.4564e-05	8058
bin	2.46352e-05	7891
bin	2.47064e-05	7969
bin	2.47776e-05	7864
bin	2.48488e-05	7857
bin	2.492e-05	7935
bin	2.49912e-05	7759
bin	2.50624e-05	7847
bin	2.51336e-05	7521
bin	2.52048e-05	7747
bin	2.5276e-05	7671
bin	2.53472e-05	7604
bin	2.54184e-05	7880
bin	2.54896e-05	7503
bin	2.55608e-05	7655
bin	2.5632e-05	7640
bin	2.57032e-05	7514
bin	2.57744e-05	7291
bin	2.58456e-05	7399
bin	2.59168e-05	7210
bin	2.5988e-05	7264
bin	2.60592e-05	7239
bin	2.61304e-05	7179
bin	2.62016e-05	7176
bin	2.62728e-05	7142
bin	2.6344e-05	7196
bin	2.64152e-05	7344
bin	2.64864e-05	7150
bin	2.65576e-05	7085
bin	2.66288e-05	7298
bin	2.67e-05	6971
bin	2.67712e-05	7028
bin	2.68424e-05	7049
bin	2.69136e-05	7083
bin	2.69848e-05	7154
bin	2.7056e-05	6892
bin	2.71272e-05	6897
bin	2.71984e-05	6988
bin	2.72696e-05	6942
bin	2.73408e-05	6866
bin	2.7412e-05	6994
bin	2.74832e-05	6771
bin	2.75544e-05	6895
bin	2.76256e-05	6727
bin	2.76968e-05	6748
bin	2.7768e-05	6673
bin	2.78392e-05	6783
bin	2.79104e-05	6602
bin	2.79816e-05	6768
bin	2.80528e-05	6689
bin	2.8124e-05	6552
bin	2.81952e-05	6688
bin	2.82664e-05	6387
bin	2.83376e-05	6634
bin	2.84088e-05	6496
bin	2.848e-05	6496
bin	2.85512e-05	6346
bin	2.86224e-05	6264
bin	2.86936e-05	6219
bin	2.87648e-05	6292
bin	2.8836e-05	6176
bin	2.89072e-05	6072
bin	2.89784e-05	6376
bin	2.90496e-05	6051
bin	2.91208e-05	6233
bin	2.9192e-05	6029
bin	2.92632e-05	6160
bin	2.93344e-05	6178
bin	2.94056e-05	6068
bin	2.94768e-05	5990
bin	2.9548e-05	6065
bin	2.96192e-05	6028
bin	2.96904e-05	5860
bin	2.97616e-05	6174
bin	2.98328e-05	5763
bin	2.9904e-05	5979
bin	2.99752e-05	5874
bin	3.00464e-05	6004
bin	3.01176e-05	5894
bin	3.01888e-05	5678
bin	3.026e-05	5671
bin	3.03312e-05	5751
bin	3.04024e-05	5648
bin	3.04736e-05	5696
bin	3.05448e-05	5795
bin	3.0616e-05	5566
bin	3.06872e-05	5738
bin	3.07584e-05	5596
bin	3.08296e-05	5496
bin	3.09008e-05	5661
bin	3.0972e-05	5511
bin	3.10432e-05	5559
bin	3.11144e-05	5559
bin	3.11856e-05	5543
bin	3.12568e-05	5439
bin	3.1328e-05	5520
bin	3.13992e-05	5404
bin	3.14704e-05	5527
bin	3.15416e-05	5352
bin	3.16128e-05	5346
bin	3.1684e-05	5483
bin	3.17552e-05	5421
bin	3.18264e-05	5244
bin	3.18976e-05	5435
bin	3.19688e-05	5488
bin	3.204e-05	5330
bin	3.21112e-05	5387
bin	3.21824e-05	5246
bin	3.22536e-05	5331
bin	3.23248e-05	5235
bin	3.2396e-05	5067
bin	3.24672e-05	5219
bin	3.25384e-05	5184
bin	3.26096e-05	4996
bin	3.26808e-05	5055
bin	3.2752e-05	4938
bin	3.28232e-05	4953
bin	3.28944e-05	5147
bin	3.29656e-05	4889
bin	3.30368e-05	5060
bin	3.3108e-05	4952
bin	3.31792e-05	4968
bin	3.32504e-05	4866
bin	3.33216e-05	4796
bin	3.33928e-05	4832
bin	3.3464e-05	4987
bin	3.35352e-05	4891
bin	3.36064e-05	4882
bin	3.36776e-05	4944
bin	3.37488e-05	4640
bin	3.382e-05	4670
bin	3.38912e-05	4729
bin	3.39624e-05	4789
bin	3.40336e-05	4600
bin	3.41048e-05	4622
bin	3.4176e-05	4706
bin	3.42472e-05	4742
bin	3.43184e-05	4739
bin	3.43896e-05	4613
bin	3.44608e-05	4764
bin	3.4532e-05	4705
bin	3.46032e-05	4655
bin	3.46744e-05	4580
bin	3.47456e-05	4638
bin	3.48168e-05	4575
bin	3.4888e-05	4452
bin	3.49592e-05	4337
bin	3.50304e-05	4435
bin	3.51016e-05	4442
bin	3.51728e-05	4418
bin	3.5244e-05	4420
bin	3.53152e-05	4229
bin	3.53864e-05	4319
bin	3.54576e-05	4241
bin	3.55288e-05	4337
bin	3.56e-05	1552630
statistic Torus3d_bub.timer 	"Life Times"
field count 6291456
field mean 0.00012150796415472
field stddev 8.2622444425874e-05
field sum 764.46201012899
field sqrsum 0.13583664078689
field min 5.2e-07
field max 0.000585478665729
bin	-INF	0
bin	0	8980
bin	8.544e-07	22253
bin	1.7088e-06	28415
bin	2.5632e-06	29062
bin	3.4176e-06	26011
bin	4.272e-06	27983
bin	5.1264e-06	35638
bin	5.9808e-06	34893
bin	6.8352e-06	28492
bin	7.6896e-06	31340
bin	8.544e-06	37794
bin	9.3984e-06	36192
bin	1.02528e-05	33790
bin	1.11072e-05	43266
bin	1.19616e-05	42895
bin	1.2816e-05	23832
bin	1.36704e-05	28458
bin	1.45248e-05	26777
bin	1.53792e-05	31553
bin	1.62336e-05	28972
bin	1.7088e-05	27919
bin	1.79424e-05	26655
bin	1.87968e-05	25241
bin	1.96512e-05	24922
bin	2.05056e-05	25793
bin	2.136e-05	22962
bin	2.22144e-05	23627
bin	2.30688e-05	23197
bin	2.39232e-05	22668
bin	2.47776e-05	22254
bin	2.5632e-05	21983
bin	2.64864e-05	24394
bin	2.73408e-05	23825
bin	2.81952e-05	23420
bin	2.90496e-05	23680
bin	2.9904e-05	23441
bin	3.07584e-05	22989
bin	3.16128e-05	22349
bin	3.24672e-05	22234
bin	3.33216e-05	22334
bin	3.4176e-05	21892
bin	3.50304e-05	22078
bin	3.58848e-05	21959
bin	3.67392e-05	23062
bin	3.75936e-05	22850
bin	3.8448e-05	23148
bin	3.93024e-05	23433
bin	4.01568e-05	23499
bin	4.10112e-05	23498
bin	4.18656e-05	22966
bin	4.272e-05	23388
bin	4.35744e-05	23014
bin	4.44288e-05	22711
bin	4.52832e-05	22658
bin	4.61376e-05	23528
bin	4.6992e-05	23382
bin	4.78464e-05	23307
bin	4.87008e-05	23279
bin	4.95552e-05	23305
bin	5.04096e-05	22622
bin	5.1264e-05	22440
bin	5.21184e-05	22476
bin	5.29728e-05	22319
bin	5.38272e-05	22137
bin	5.46816e-05	21797
bin	5.5536e-05	22086
bin	5.63904e-05	21856
bin	5.72448e-05	21744
bin	5.80992e-05	21668
bin	5.89536e-05	21931
bin	5.9808e-05	21577
bin	6.06624e-05	21677
bin	6.15168e-05	22048
bin	6.23712e-05	21830
bin	6.32256e-05	22245
bin	6.408e-05	22314
bin	6.49344e-05	22238
bin	6.57888e-05	22525
bin	6.66432e-05	22254
bin	6.74976e-05	22208
bin	6.8352e-05	22281
bin	6.92064e-05	22425
bin	7.00608e-05	22117
bin	7.09152e-05	22126
bin	7.17696e-05	22136
bin	7.2624e-05	22080
bin	7.34784e-05	22339
bin	7.43328e-05	22417
bin	7.51872e-05	22701
bin	7.60416e-05	22448
bin	7.6896e-05	22906
bin	7.77504e-05	22551
bin	7.86048e-05	22413
bin	7.94592e-05	22503
bin	8.03136e-05	22751
bin	8.1168e-05	22513
bin	8.20224e-05	22262
bin	8.28768e-05	22980
bin	8.37312e-05	22598
bin	8.45856e-05	22435
bin	8.544e-05	22622
bin	8.62944e-05	22575
bin	8.71488e-05	22550
bin	8.80032e-05	22557
bin	8.88576e-05	22560
bin	8.9712e-05	22524
bin	9.05664e-05	22324
bin	9.14208e-05	22246
bin	9.22752e-05	22329
bin	9.31296e-05	22688
bin	9.3984e-05	22355
bin	9.48384e-05	22264
bin	9.56928e-05	22304
bin	9.65472e-05	22391
bin	9.74016e-05	22464
bin	9.8256e-05	22398
bin	9.91104e-05	22389
bin	9.99648e-05	22459
bin	0.0001008192	22185
bin	0.0001016736	22714
bin	0.000102528	22560
bin	0.0001033824	22412
bin	0.0001042368	22276
bin	0.0001050912	21980
bin	0.0001059456	22584
bin	0.0001068	22401
bin	0.0001076544	22707
bin	0.0001085088	22582
bin	0.0001093632	22783
bin	0.0001102176	22642
bin	0.000111072	22587
bin	0.0001119264	22726
bin	0.0001127808	22835
bin	0.0001136352	22714
bin	0.0001144896	22670
bin	0.000115344	22226
bin	0.0001161984	22091
bin	0.0001170528	22141
bin	0.0001179072	22095
bin	0.0001187616	22120
bin	0.000119616	22105
bin	0.0001204704	22044
bin	0.0001213248	22203
bin	0.0001221792	22299
bin	0.0001230336	22271
bin	0.000123888	22410
bin	0.0001247424	22040
bin	0.0001255968	21861
bin	0.0001264512	21794
bin	0.0001273056	21701
bin	0.00012816	21734
bin	0.0001290144	21955
bin	0.0001298688	21497
bin	0.0001307232	21432
bin	0.0001315776	21665
bin	0.000132432	21634
bin	0.0001332864	21684
bin	0.0001341408	21521
bin	0.0001349952	21403
bin	0.0001358496	21214
bin	0.000136704	21373
bin	0.0001375584	21248
bin	0.0001384128	21110
bin	0.0001392672	21107
bin	0.0001401216	20987
bin	0.000140976	20919
bin	0.0001418304	21085
bin	0.0001426848	20848
bin	0.0001435392	20828
bin	0.0001443936	20829
bin	0.000145248	20883
bin	0.0001461024	20820
bin	0.0001469568	20614
bin	0.0001478112	20721
bin	0.0001486656	20549
bin	0.00014952	20426
bin	0.0001503744	20538
bin	0.0001512288	20571
bin	0.0001520832	20300
bin	0.0001529376	20376
bin	0.000153792	20286
bin	0.0001546464	20118
bin	0.0001555008	19886
bin	0.0001563552	20042
bin	0.0001572096	20062
bin	0.000158064	20293
bin	0.0001589184	20080
bin	0.0001597728	19804
bin	0.0001606272	19606
bin	0.0001614816	19641
bin	0.000162336	19611
bin	0.0001631904	19292
bin	0.0001640448	19091
bin	0.0001648992	19403
bin	0.0001657536	19197
bin	0.000166608	19243
bin	0.0001674624	18900
bin	0.0001683168	19045
bin	0.0001691712	18732
bin	0.0001700256	18789
bin	0.00017088	18674
bin	0.0001717344	18450
bin	0.0001725888	18376
bin	0.0001734432	18290
bin	0.0001742976	18307
bin	0.000175152	18031
bin	0.0001760064	17994
bin	0.0001768608	17782
bin	0.0001777152	17789
bin	0.0001785696	17423
bin	0.000179424	17348
bin	0.0001802784	17310
bin	0.0001811328	17050
bin	0.0001819872	17005
bin	0.0001828416	16739
bin	0.000183696	16777
bin	0.0001845504	16344
bin	0.0001854048	16374
bin	0.0001862592	16478
bin	0.0001871136	16118
bin	0.000187968	15978
bin	0.0001888224	15664
bin	0.0001896768	15557
bin	0.0001905312	15537
bin	0.0001913856	15565
bin	0.00019224	15317
bin	0.0001930944	15395
bin	0.0001939488	15208
bin	0.0001948032	15177
bin	0.0001956576	15045
bin	0.000196512	15041
bin	0.0001973664	14889
bin	0.0001982208	14772
bin	0.0001990752	14608
bin	0.0001999296	14672
bin	0.000200784	14639
bin	0.0002016384	14429
bin	0.0002024928	14224
bin	0.0002033472	14326
bin	0.0002042016	14115
bin	0.000205056	13775
bin	0.0002059104	13658
bin	0.0002067648	13968
bin	0.0002076192	13676
bin	0.0002084736	13671
bin	0.000209328	13462
bin	0.0002101824	13568
bin	0.0002110368	13447
bin	0.0002118912	13216
bin	0.0002127456	12993
bin	0.0002136	13016
bin	0.0002144544	13128
bin	0.0002153088	12848
bin	0.0002161632	12991
bin	0.0002170176	12840
bin	0.000217872	12710
bin	0.0002187264	12654
bin	0.0002195808	12532
bin	0.0002204352	12575
bin	0.0002212896	12262
bin	0.000222144	11971
bin	0.0002229984	11923
bin	0.0002238528	11982
bin	0.0002247072	11852
bin	0.0002255616	11861
bin	0.000226416	11471
bin	0.0002272704	11216
bin	0.0002281248	11276
bin	0.0002289792	11212
bin	0.0002298336	10971
bin	0.000230688	10969
bin	0.0002315424	10786
bin	0.0002323968	10853
bin	0.0002332512	10556
bin	0.0002341056	10395
bin	0.00023496	10107
bin	0.0002358144	10161
bin	0.0002366688	10012
bin	0.0002375232	9885
bin	0.0002383776	9806
bin	0.000239232	9617
bin	0.0002400864	9396
bin	0.0002409408	9185
bin	0.0002417952	9260
bin	0.0002426496	8961
bin	0.000243504	8974
bin	0.0002443584	8908
bin	0.0002452128	8843
bin	0.0002460672	8636
bin	0.0002469216	8590
bin	0.000247776	8365
bin	0.0002486304	8313
bin	0.0002494848	8118
bin	0.0002503392	7928
bin	0.0002511936	7860
bin	0.000252048	7830
bin	0.0002529024	7787
bin	0.0002537568	7534
bin	0.0002546112	7495
bin	0.0002554656	7445
bin	0.00025632	7150
bin	0.0002571744	7172
bin	0.0002580288	7011
bin	0.0002588832	7010
bin	0.0002597376	6896
bin	0.000260592	6859
bin	0.0002614464	6591
bin	0.0002623008	6554
bin	0.0002631552	6484
bin	0.0002640096	6461
bin	0.000264864	6347
bin	0.0002657184	6257
bin	0.0002665728	6190
bin	0.0002674272	6075
bin	0.0002682816	6109
bin	0.000269136	6017
bin	0.0002699904	5779
bin	0.0002708448	5643
bin	0.0002716992	5673
bin	0.0002725536	5649
bin	0.000273408	5428
bin	0.0002742624	5368
bin	0.0002751168	5371
bin	0.0002759712	5175
bin	0.0002768256	4939
bin	0.00027768	4849
bin	0.0002785344	4745
bin	0.0002793888	4705
bin	0.0002802432	4645
bin	0.0002810976	4574
bin	0.000281952	4406
bin	0.0002828064	4459
bin	0.0002836608	4351
bin	0.0002845152	4308
bin	0.0002853696	4131
bin	0.000286224	4078
bin	0.0002870784	4117
bin	0.0002879328	3958
bin	0.0002887872	3959
bin	0.0002896416	3855
bin	0.000290496	3820
bin	0.0002913504	3818
bin	0.0002922048	3718
bin	0.0002930592	3551
bin	0.0002939136	3600
bin	0.000294768	3545
bin	0.0002956224	3565
bin	0.0002964768	3464
bin	0.0002973312	3474
bin	0.0002981856	3401
bin	0.00029904	3291
bin	0.0002998944	3258
bin	0.0003007488	3167
bin	0.0003016032	3107
bin	0.0003024576	3144
bin	0.000303312	2966
bin	0.0003041664	2919
bin	0.0003050208	2833
bin	0.0003058752	2814
bin	0.0003067296	2781
bin	0.000307584	2756
bin	0.0003084384	2706
bin	0.0003092928	2643
bin	0.0003101472	2568
bin	0.0003110016	2565
bin	0.000311856	2486
bin	0.0003127104	2430
bin	0.0003135648	2468
bin	0.0003144192	2386
bin	0.0003152736	2337
bin	0.000316128	2311
bin	0.0003169824	2233
bin	0.0003178368	2162
bin	0.0003186912	2198
bin	0.0003195456	2118
bin	0.0003204	2144
bin	0.0003212544	2079
bin	0.0003221088	2014
bin	0.0003229632	2022
bin	0.0003238176	1910
bin	0.000324672	1930
bin	0.0003255264	1931
bin	0.0003263808	1830
bin	0.0003272352	1746
bin	0.0003280896	1690
bin	0.000328944	1759
bin	0.0003297984	1613
bin	0.0003306528	1618
bin	0.0003315072	1627
bin	0.0003323616	1546
bin	0.000333216	1542
bin	0.0003340704	1568
bin	0.0003349248	1511
bin	0.0003357792	1499
bin	0.0003366336	1368
bin	0.000337488	1382
bin	0.0003383424	1388
bin	0.0003391968	1395
bin	0.0003400512	1358
bin	0.0003409056	1257
bin	0.00034176	1239
bin	0.0003426144	1233
bin	0.0003434688	1159
bin	0.0003443232	1134
bin	0.0003451776	1121
bin	0.000346032	1144
bin	0.0003468864	1065
bin	0.0003477408	1118
bin	0.0003485952	1049
bin	0.0003494496	1082
bin	0.000350304	986
bin	0.0003511584	975
bin	0.0003520128	1020
bin	0.0003528672	1002
bin	0.0003537216	1003
bin	0.000354576	954
bin	0.0003554304	893
bin	0.0003562848	871
bin	0.0003571392	863
bin	0.0003579936	791
bin	0.000358848	783
bin	0.0003597024	776
bin	0.0003605568	737
bin	0.0003614112	718
bin	0.0003622656	748
bin	0.00036312	724
bin	0.0003639744	663
bin	0.0003648288	718
bin	0.0003656832	714
bin	0.0003665376	654
bin	0.000367392	639
bin	0.0003682464	621
bin	0.0003691008	612
bin	0.0003699552	627
bin	0.0003708096	598
bin	0.000371664	561
bin	0.0003725184	571
bin	0.0003733728	574
bin	0.0003742272	557
bin	0.0003750816	545
bin	0.000375936	541
bin	0.0003767904	547
bin	0.0003776448	529
bin	0.0003784992	498
bin	0.0003793536	474
bin	0.000380208	459
bin	0.0003810624	441
bin	0.0003819168	437
bin	0.0003827712	433
bin	0.0003836256	433
bin	0.00038448	419
bin	0.0003853344	430
bin	0.0003861888	402
bin	0.0003870432	390
bin	0.0003878976	366
bin	0.000388752	352
bin	0.0003896064	350
bin	0.0003904608	329
bin	0.0003913152	314
bin	0.0003921696	277
bin	0.000393024	312
bin	0.0003938784	292
bin	0.0003947328	287
bin	0.0003955872	287
bin	0.0003964416	258
bin	0.000397296	241
bin	0.0003981504	255
bin	0.0003990048	252
bin	0.0003998592	230
bin	0.0004007136	226
bin	0.000401568	228
bin	0.0004024224	224
bin	0.0004032768	217
bin	0.0004041312	227
bin	0.0004049856	214
bin	0.00040584	208
bin	0.0004066944	189
bin	0.0004075488	164
bin	0.0004084032	193
bin	0.0004092576	176
bin	0.000410112	170
bin	0.0004109664	157
bin	0.0004118208	161
bin	0.0004126752	167
bin	0.0004135296	151
bin	0.000414384	155
bin	0.0004152384	156
bin	0.0004160928	137
bin	0.0004169472	139
bin	0.0004178016	130
bin	0.000418656	146
bin	0.0004195104	144
bin	0.0004203648	145
bin	0.0004212192	127
bin	0.0004220736	137
bin	0.000422928	137
bin	0.0004237824	117
bin	0.0004246368	124
bin	0.0004254912	136
bin	0.0004263456	121
bin	0.0004272	3697
