version 2
run Butterfly-45-20120709-10:43:08-22784
attr alg 1
attr buf 8
attr configname Butterfly
attr datetime 20120709-10:43:08
attr delta 2.4
attr experiment Butterfly
attr ext true
attr inifile altro.ini
attr iterationvars "$buf=8, $ext=true, $ofedge=1, $delta=2.4, $alg=1"
attr iterationvars2 "$buf=8, $ext=true, $ofedge=1, $delta=2.4, $alg=1, $repetition=0"
attr measurement "$buf=8, $ext=true, $ofedge=1, $delta=2.4, $alg=1"
attr network Torus3d_bub
attr ofedge 1
attr processid 22784
attr repetition 0
attr replication #0
attr resultdir altro-results
attr runnumber 45
attr seedset 45

scalar . 	alg 	1
scalar . 	buf 	8
scalar . 	delta 	2.4
scalar . 	ofedge 	1
scalar Torus3d_bub.timer 	#endTime 	0.000833328332054
scalar Torus3d_bub.timer 	#totalHops 	35835385
scalar Torus3d_bub.timer 	#totalPacks 	6291456
scalar Torus3d_bub.timer 	#totalDerouted 	4200040
scalar Torus3d_bub.timer 	#totalOutFlanked 	4200040
scalar Torus3d_bub.timer 	#totalCQRed 	0
scalar Torus3d_bub.timer 	#LB 	0.000786432
scalar Torus3d_bub.timer 	#ratio 	0.94372406379319
statistic Torus3d_bub.timer 	"Hop Times"
field count 6291456
field mean 4.8481319779508e-05
field stddev 5.6282369310111e-05
field sum 305.0180902147
field sqrsum 0.034717153629702
field min 5.73583329e-07
field max 0.000529202665772
bin	-INF	0
bin	0	0
bin	7.12e-08	0
bin	1.424e-07	0
bin	2.136e-07	0
bin	2.848e-07	0
bin	3.56e-07	0
bin	4.272e-07	0
bin	4.984e-07	0
bin	5.696e-07	4096
bin	6.408e-07	0
bin	7.12e-07	7168
bin	7.832e-07	1024
bin	8.544e-07	1026
bin	9.256e-07	7173
bin	9.968e-07	2057
bin	1.068e-06	2061
bin	1.1392e-06	2161
bin	1.2104e-06	4258
bin	1.2816e-06	3196
bin	1.3528e-06	4093
bin	1.424e-06	5744
bin	1.4952e-06	10891
bin	1.5664e-06	4798
bin	1.6376e-06	4434
bin	1.7088e-06	9343
bin	1.78e-06	4874
bin	1.8512e-06	4292
bin	1.9224e-06	5381
bin	1.9936e-06	11348
bin	2.0648e-06	4497
bin	2.136e-06	9294
bin	2.2072e-06	7555
bin	2.2784e-06	13381
bin	2.3496e-06	6025
bin	2.4208e-06	8682
bin	2.492e-06	11059
bin	2.5632e-06	5842
bin	2.6344e-06	5579
bin	2.7056e-06	10243
bin	2.7768e-06	11887
bin	2.848e-06	10315
bin	2.9192e-06	6494
bin	2.9904e-06	6372
bin	3.0616e-06	9964
bin	3.1328e-06	7558
bin	3.204e-06	7817
bin	3.2752e-06	13888
bin	3.3464e-06	5193
bin	3.4176e-06	6050
bin	3.4888e-06	9573
bin	3.56e-06	9287
bin	3.6312e-06	4852
bin	3.7024e-06	6983
bin	3.7736e-06	8808
bin	3.8448e-06	11015
bin	3.916e-06	7039
bin	3.9872e-06	5521
bin	4.0584e-06	8660
bin	4.1296e-06	4514
bin	4.2008e-06	4904
bin	4.272e-06	4293
bin	4.3432e-06	8208
bin	4.4144e-06	3998
bin	4.4856e-06	4387
bin	4.5568e-06	4764
bin	4.628e-06	9455
bin	4.6992e-06	5525
bin	4.7704e-06	4615
bin	4.8416e-06	8434
bin	4.9128e-06	4714
bin	4.984e-06	4401
bin	5.0552e-06	4430
bin	5.1264e-06	8323
bin	5.1976e-06	4230
bin	5.2688e-06	4333
bin	5.34e-06	4521
bin	5.4112e-06	8298
bin	5.4824e-06	4269
bin	5.5536e-06	4388
bin	5.6248e-06	8723
bin	5.696e-06	4774
bin	5.7672e-06	4549
bin	5.8384e-06	4525
bin	5.9096e-06	8663
bin	5.9808e-06	4707
bin	6.052e-06	4823
bin	6.1232e-06	4630
bin	6.1944e-06	8666
bin	6.2656e-06	4609
bin	6.3368e-06	4626
bin	6.408e-06	8796
bin	6.4792e-06	5070
bin	6.5504e-06	4840
bin	6.6216e-06	4834
bin	6.6928e-06	9059
bin	6.764e-06	4988
bin	6.8352e-06	5137
bin	6.9064e-06	4863
bin	6.9776e-06	9146
bin	7.0488e-06	5125
bin	7.12e-06	5069
bin	7.1912e-06	9195
bin	7.2624e-06	5364
bin	7.3336e-06	5294
bin	7.4048e-06	5214
bin	7.476e-06	9221
bin	7.5472e-06	5122
bin	7.6184e-06	5299
bin	7.6896e-06	5144
bin	7.7608e-06	9365
bin	7.832e-06	5073
bin	7.9032e-06	5053
bin	7.9744e-06	9119
bin	8.0456e-06	5163
bin	8.1168e-06	5007
bin	8.188e-06	5102
bin	8.2592e-06	5165
bin	8.3304e-06	5181
bin	8.4016e-06	5392
bin	8.4728e-06	5402
bin	8.544e-06	9294
bin	8.6152e-06	5320
bin	8.6864e-06	5372
bin	8.7576e-06	9446
bin	8.8288e-06	5454
bin	8.9e-06	5450
bin	8.9712e-06	5552
bin	9.0424e-06	7675
bin	9.1136e-06	5659
bin	9.1848e-06	5660
bin	9.256e-06	5625
bin	9.3272e-06	9872
bin	9.3984e-06	5718
bin	9.4696e-06	5845
bin	9.5408e-06	5737
bin	9.612e-06	5887
bin	9.6832e-06	5764
bin	9.7544e-06	5943
bin	9.8256e-06	7998
bin	9.8968e-06	5918
bin	9.968e-06	6065
bin	1.00392e-05	5892
bin	1.01104e-05	9944
bin	1.01816e-05	6014
bin	1.02528e-05	6094
bin	1.0324e-05	8149
bin	1.03952e-05	6122
bin	1.04664e-05	6238
bin	1.05376e-05	6166
bin	1.06088e-05	6050
bin	1.068e-05	6121
bin	1.07512e-05	6185
bin	1.08224e-05	5962
bin	1.08936e-05	8266
bin	1.09648e-05	6037
bin	1.1036e-05	6069
bin	1.11072e-05	10033
bin	1.11784e-05	6155
bin	1.12496e-05	6312
bin	1.13208e-05	6116
bin	1.1392e-05	6160
bin	1.14632e-05	6176
bin	1.15344e-05	6181
bin	1.16056e-05	6153
bin	1.16768e-05	6312
bin	1.1748e-05	6136
bin	1.18192e-05	6338
bin	1.18904e-05	8222
bin	1.19616e-05	6256
bin	1.20328e-05	6260
bin	1.2104e-05	6363
bin	1.21752e-05	6284
bin	1.22464e-05	6404
bin	1.23176e-05	6467
bin	1.23888e-05	6400
bin	1.246e-05	6436
bin	1.25312e-05	6469
bin	1.26024e-05	6399
bin	1.26736e-05	7526
bin	1.27448e-05	6404
bin	1.2816e-05	6449
bin	1.28872e-05	6529
bin	1.29584e-05	7525
bin	1.30296e-05	6573
bin	1.31008e-05	6690
bin	1.3172e-05	6526
bin	1.32432e-05	7830
bin	1.33144e-05	6661
bin	1.33856e-05	6597
bin	1.34568e-05	8605
bin	1.3528e-05	6687
bin	1.35992e-05	6528
bin	1.36704e-05	6604
bin	1.37416e-05	7639
bin	1.38128e-05	6645
bin	1.3884e-05	6691
bin	1.39552e-05	6573
bin	1.40264e-05	7611
bin	1.40976e-05	6766
bin	1.41688e-05	6738
bin	1.424e-05	7857
bin	1.43112e-05	6829
bin	1.43824e-05	6793
bin	1.44536e-05	6819
bin	1.45248e-05	6765
bin	1.4596e-05	6877
bin	1.46672e-05	7080
bin	1.47384e-05	6873
bin	1.48096e-05	6817
bin	1.48808e-05	7049
bin	1.4952e-05	6930
bin	1.50232e-05	7074
bin	1.50944e-05	6968
bin	1.51656e-05	7066
bin	1.52368e-05	7058
bin	1.5308e-05	7042
bin	1.53792e-05	7021
bin	1.54504e-05	6890
bin	1.55216e-05	7108
bin	1.55928e-05	7135
bin	1.5664e-05	7171
bin	1.57352e-05	7109
bin	1.58064e-05	7133
bin	1.58776e-05	7198
bin	1.59488e-05	7244
bin	1.602e-05	7211
bin	1.60912e-05	7341
bin	1.61624e-05	7330
bin	1.62336e-05	7357
bin	1.63048e-05	7378
bin	1.6376e-05	7252
bin	1.64472e-05	7441
bin	1.65184e-05	7252
bin	1.65896e-05	7471
bin	1.66608e-05	7432
bin	1.6732e-05	7501
bin	1.68032e-05	7492
bin	1.68744e-05	7396
bin	1.69456e-05	7590
bin	1.70168e-05	7448
bin	1.7088e-05	7495
bin	1.71592e-05	7496
bin	1.72304e-05	7757
bin	1.73016e-05	7589
bin	1.73728e-05	7602
bin	1.7444e-05	7617
bin	1.75152e-05	7870
bin	1.75864e-05	7774
bin	1.76576e-05	7757
bin	1.77288e-05	7939
bin	1.78e-05	7598
bin	1.78712e-05	7745
bin	1.79424e-05	7823
bin	1.80136e-05	7777
bin	1.80848e-05	7462
bin	1.8156e-05	7669
bin	1.82272e-05	7602
bin	1.82984e-05	7611
bin	1.83696e-05	7540
bin	1.84408e-05	7617
bin	1.8512e-05	7772
bin	1.85832e-05	7581
bin	1.86544e-05	7651
bin	1.87256e-05	7607
bin	1.87968e-05	7560
bin	1.8868e-05	7568
bin	1.89392e-05	7804
bin	1.90104e-05	7890
bin	1.90816e-05	7709
bin	1.91528e-05	7805
bin	1.9224e-05	7835
bin	1.92952e-05	7861
bin	1.93664e-05	7621
bin	1.94376e-05	7806
bin	1.95088e-05	7691
bin	1.958e-05	8005
bin	1.96512e-05	7800
bin	1.97224e-05	7966
bin	1.97936e-05	7870
bin	1.98648e-05	7796
bin	1.9936e-05	7676
bin	2.00072e-05	7848
bin	2.00784e-05	8103
bin	2.01496e-05	7880
bin	2.02208e-05	7918
bin	2.0292e-05	7745
bin	2.03632e-05	7973
bin	2.04344e-05	7918
bin	2.05056e-05	8077
bin	2.05768e-05	7897
bin	2.0648e-05	8024
bin	2.07192e-05	8036
bin	2.07904e-05	7895
bin	2.08616e-05	7901
bin	2.09328e-05	7869
bin	2.1004e-05	7929
bin	2.10752e-05	7738
bin	2.11464e-05	8064
bin	2.12176e-05	8037
bin	2.12888e-05	8006
bin	2.136e-05	8139
bin	2.14312e-05	8049
bin	2.15024e-05	8089
bin	2.15736e-05	8009
bin	2.16448e-05	8194
bin	2.1716e-05	7953
bin	2.17872e-05	8061
bin	2.18584e-05	7821
bin	2.19296e-05	7860
bin	2.20008e-05	7950
bin	2.2072e-05	8101
bin	2.21432e-05	7954
bin	2.22144e-05	7954
bin	2.22856e-05	7961
bin	2.23568e-05	7891
bin	2.2428e-05	8082
bin	2.24992e-05	7901
bin	2.25704e-05	7862
bin	2.26416e-05	7726
bin	2.27128e-05	8013
bin	2.2784e-05	7860
bin	2.28552e-05	7898
bin	2.29264e-05	7854
bin	2.29976e-05	7919
bin	2.30688e-05	7890
bin	2.314e-05	7755
bin	2.32112e-05	8094
bin	2.32824e-05	7923
bin	2.33536e-05	8111
bin	2.34248e-05	7861
bin	2.3496e-05	8017
bin	2.35672e-05	7878
bin	2.36384e-05	7975
bin	2.37096e-05	7790
bin	2.37808e-05	7963
bin	2.3852e-05	8087
bin	2.39232e-05	7762
bin	2.39944e-05	7952
bin	2.40656e-05	7957
bin	2.41368e-05	7959
bin	2.4208e-05	7988
bin	2.42792e-05	7923
bin	2.43504e-05	8003
bin	2.44216e-05	7931
bin	2.44928e-05	8066
bin	2.4564e-05	7973
bin	2.46352e-05	8094
bin	2.47064e-05	7981
bin	2.47776e-05	7989
bin	2.48488e-05	8136
bin	2.492e-05	8132
bin	2.49912e-05	7975
bin	2.50624e-05	8082
bin	2.51336e-05	8026
bin	2.52048e-05	7987
bin	2.5276e-05	7999
bin	2.53472e-05	8059
bin	2.54184e-05	8050
bin	2.54896e-05	7839
bin	2.55608e-05	7970
bin	2.5632e-05	8081
bin	2.57032e-05	7946
bin	2.57744e-05	8012
bin	2.58456e-05	8193
bin	2.59168e-05	8033
bin	2.5988e-05	8114
bin	2.60592e-05	8004
bin	2.61304e-05	8050
bin	2.62016e-05	8084
bin	2.62728e-05	7973
bin	2.6344e-05	7847
bin	2.64152e-05	7876
bin	2.64864e-05	7887
bin	2.65576e-05	7928
bin	2.66288e-05	7864
bin	2.67e-05	7847
bin	2.67712e-05	7872
bin	2.68424e-05	7823
bin	2.69136e-05	7817
bin	2.69848e-05	7955
bin	2.7056e-05	7704
bin	2.71272e-05	7798
bin	2.71984e-05	7948
bin	2.72696e-05	7994
bin	2.73408e-05	7643
bin	2.7412e-05	7873
bin	2.74832e-05	7998
bin	2.75544e-05	7771
bin	2.76256e-05	7784
bin	2.76968e-05	7808
bin	2.7768e-05	7765
bin	2.78392e-05	7709
bin	2.79104e-05	7730
bin	2.79816e-05	7971
bin	2.80528e-05	7659
bin	2.8124e-05	7511
bin	2.81952e-05	7864
bin	2.82664e-05	7822
bin	2.83376e-05	7824
bin	2.84088e-05	7678
bin	2.848e-05	7726
bin	2.85512e-05	7706
bin	2.86224e-05	7488
bin	2.86936e-05	7646
bin	2.87648e-05	7829
bin	2.8836e-05	7712
bin	2.89072e-05	7643
bin	2.89784e-05	7712
bin	2.90496e-05	7755
bin	2.91208e-05	7749
bin	2.9192e-05	7741
bin	2.92632e-05	7633
bin	2.93344e-05	7812
bin	2.94056e-05	7578
bin	2.94768e-05	7601
bin	2.9548e-05	7631
bin	2.96192e-05	7632
bin	2.96904e-05	7635
bin	2.97616e-05	7446
bin	2.98328e-05	7748
bin	2.9904e-05	7465
bin	2.99752e-05	7477
bin	3.00464e-05	7747
bin	3.01176e-05	7705
bin	3.01888e-05	7438
bin	3.026e-05	7450
bin	3.03312e-05	7399
bin	3.04024e-05	7541
bin	3.04736e-05	7360
bin	3.05448e-05	7356
bin	3.0616e-05	7437
bin	3.06872e-05	7460
bin	3.07584e-05	7462
bin	3.08296e-05	7454
bin	3.09008e-05	7543
bin	3.0972e-05	7559
bin	3.10432e-05	7399
bin	3.11144e-05	7553
bin	3.11856e-05	7471
bin	3.12568e-05	7384
bin	3.1328e-05	7338
bin	3.13992e-05	7487
bin	3.14704e-05	7448
bin	3.15416e-05	7341
bin	3.16128e-05	7387
bin	3.1684e-05	7375
bin	3.17552e-05	7244
bin	3.18264e-05	7271
bin	3.18976e-05	7279
bin	3.19688e-05	7219
bin	3.204e-05	7176
bin	3.21112e-05	7190
bin	3.21824e-05	7282
bin	3.22536e-05	7264
bin	3.23248e-05	7248
bin	3.2396e-05	7286
bin	3.24672e-05	7170
bin	3.25384e-05	7136
bin	3.26096e-05	7254
bin	3.26808e-05	7227
bin	3.2752e-05	7120
bin	3.28232e-05	6958
bin	3.28944e-05	7045
bin	3.29656e-05	7091
bin	3.30368e-05	7061
bin	3.3108e-05	6980
bin	3.31792e-05	7103
bin	3.32504e-05	7066
bin	3.33216e-05	7152
bin	3.33928e-05	6989
bin	3.3464e-05	7097
bin	3.35352e-05	6851
bin	3.36064e-05	6885
bin	3.36776e-05	6870
bin	3.37488e-05	6983
bin	3.382e-05	6879
bin	3.38912e-05	6797
bin	3.39624e-05	6883
bin	3.40336e-05	6908
bin	3.41048e-05	6802
bin	3.4176e-05	6629
bin	3.42472e-05	6894
bin	3.43184e-05	6726
bin	3.43896e-05	6541
bin	3.44608e-05	6718
bin	3.4532e-05	6801
bin	3.46032e-05	6727
bin	3.46744e-05	6713
bin	3.47456e-05	6776
bin	3.48168e-05	6583
bin	3.4888e-05	6589
bin	3.49592e-05	6504
bin	3.50304e-05	6770
bin	3.51016e-05	6623
bin	3.51728e-05	6473
bin	3.5244e-05	6520
bin	3.53152e-05	6668
bin	3.53864e-05	6548
bin	3.54576e-05	6495
bin	3.55288e-05	6450
bin	3.56e-05	2793331
statistic Torus3d_bub.timer 	"Life Times"
field count 6291456
field mean 0.00018896453122808
field stddev 0.00010778250497237
field sum 1188.8620337821
field sqrsum 0.29774101984135
field min 7.33333333e-07
field max 0.000590734332717
bin	-INF	0
bin	0	4096
bin	8.544e-07	15360
bin	1.7088e-06	22549
bin	2.5632e-06	17506
bin	3.4176e-06	17615
bin	4.272e-06	21796
bin	5.1264e-06	26017
bin	5.9808e-06	22551
bin	6.8352e-06	21850
bin	7.6896e-06	19105
bin	8.544e-06	29000
bin	9.3984e-06	19656
bin	1.02528e-05	17918
bin	1.11072e-05	27538
bin	1.19616e-05	12419
bin	1.2816e-05	18456
bin	1.36704e-05	17849
bin	1.45248e-05	12978
bin	1.53792e-05	11316
bin	1.62336e-05	9478
bin	1.7088e-05	7904
bin	1.79424e-05	8881
bin	1.87968e-05	8585
bin	1.96512e-05	8604
bin	2.05056e-05	7886
bin	2.136e-05	7844
bin	2.22144e-05	8345
bin	2.30688e-05	8381
bin	2.39232e-05	8649
bin	2.47776e-05	8285
bin	2.5632e-05	8759
bin	2.64864e-05	9261
bin	2.73408e-05	9748
bin	2.81952e-05	9846
bin	2.90496e-05	10168
bin	2.9904e-05	9700
bin	3.07584e-05	8962
bin	3.16128e-05	9083
bin	3.24672e-05	9054
bin	3.33216e-05	9286
bin	3.4176e-05	9357
bin	3.50304e-05	9432
bin	3.58848e-05	10258
bin	3.67392e-05	10182
bin	3.75936e-05	10429
bin	3.8448e-05	10859
bin	3.93024e-05	10815
bin	4.01568e-05	10397
bin	4.10112e-05	10628
bin	4.18656e-05	10739
bin	4.272e-05	10580
bin	4.35744e-05	10730
bin	4.44288e-05	10525
bin	4.52832e-05	10949
bin	4.61376e-05	10905
bin	4.6992e-05	11069
bin	4.78464e-05	11434
bin	4.87008e-05	11650
bin	4.95552e-05	11703
bin	5.04096e-05	11606
bin	5.1264e-05	12130
bin	5.21184e-05	12188
bin	5.29728e-05	12186
bin	5.38272e-05	12118
bin	5.46816e-05	12552
bin	5.5536e-05	12649
bin	5.63904e-05	12731
bin	5.72448e-05	12928
bin	5.80992e-05	12989
bin	5.89536e-05	13210
bin	5.9808e-05	12928
bin	6.06624e-05	13606
bin	6.15168e-05	13320
bin	6.23712e-05	13516
bin	6.32256e-05	13370
bin	6.408e-05	13656
bin	6.49344e-05	13415
bin	6.57888e-05	13459
bin	6.66432e-05	13492
bin	6.74976e-05	13520
bin	6.8352e-05	13266
bin	6.92064e-05	13306
bin	7.00608e-05	13656
bin	7.09152e-05	13320
bin	7.17696e-05	13000
bin	7.2624e-05	13181
bin	7.34784e-05	13286
bin	7.43328e-05	12896
bin	7.51872e-05	12876
bin	7.60416e-05	12916
bin	7.6896e-05	13102
bin	7.77504e-05	12862
bin	7.86048e-05	13064
bin	7.94592e-05	13251
bin	8.03136e-05	13099
bin	8.1168e-05	13104
bin	8.20224e-05	13213
bin	8.28768e-05	13370
bin	8.37312e-05	13220
bin	8.45856e-05	13198
bin	8.544e-05	13442
bin	8.62944e-05	13444
bin	8.71488e-05	13382
bin	8.80032e-05	13425
bin	8.88576e-05	13635
bin	8.9712e-05	13686
bin	9.05664e-05	13600
bin	9.14208e-05	13490
bin	9.22752e-05	13671
bin	9.31296e-05	13708
bin	9.3984e-05	13621
bin	9.48384e-05	13868
bin	9.56928e-05	14011
bin	9.65472e-05	14202
bin	9.74016e-05	14188
bin	9.8256e-05	14112
bin	9.91104e-05	13901
bin	9.99648e-05	14190
bin	0.0001008192	14092
bin	0.0001016736	14056
bin	0.000102528	14328
bin	0.0001033824	14383
bin	0.0001042368	14311
bin	0.0001050912	14424
bin	0.0001059456	14514
bin	0.0001068	14338
bin	0.0001076544	14278
bin	0.0001085088	14305
bin	0.0001093632	14351
bin	0.0001102176	14174
bin	0.000111072	14276
bin	0.0001119264	14411
bin	0.0001127808	14544
bin	0.0001136352	14416
bin	0.0001144896	14430
bin	0.000115344	14636
bin	0.0001161984	14635
bin	0.0001170528	14906
bin	0.0001179072	14926
bin	0.0001187616	14819
bin	0.000119616	14883
bin	0.0001204704	15149
bin	0.0001213248	15080
bin	0.0001221792	15103
bin	0.0001230336	15149
bin	0.000123888	15041
bin	0.0001247424	15228
bin	0.0001255968	15302
bin	0.0001264512	15212
bin	0.0001273056	15269
bin	0.00012816	15546
bin	0.0001290144	15564
bin	0.0001298688	15414
bin	0.0001307232	15397
bin	0.0001315776	15403
bin	0.000132432	15637
bin	0.0001332864	15413
bin	0.0001341408	15484
bin	0.0001349952	15440
bin	0.0001358496	15584
bin	0.000136704	15605
bin	0.0001375584	15664
bin	0.0001384128	15656
bin	0.0001392672	15693
bin	0.0001401216	15957
bin	0.000140976	15908
bin	0.0001418304	16014
bin	0.0001426848	15954
bin	0.0001435392	15829
bin	0.0001443936	16080
bin	0.000145248	16132
bin	0.0001461024	16231
bin	0.0001469568	16276
bin	0.0001478112	16421
bin	0.0001486656	16320
bin	0.00014952	16669
bin	0.0001503744	16634
bin	0.0001512288	16794
bin	0.0001520832	17014
bin	0.0001529376	16774
bin	0.000153792	16891
bin	0.0001546464	17240
bin	0.0001555008	17143
bin	0.0001563552	17277
bin	0.0001572096	17127
bin	0.000158064	16813
bin	0.0001589184	16716
bin	0.0001597728	16918
bin	0.0001606272	17074
bin	0.0001614816	16852
bin	0.000162336	17008
bin	0.0001631904	17375
bin	0.0001640448	16917
bin	0.0001648992	17198
bin	0.0001657536	17243
bin	0.000166608	17451
bin	0.0001674624	17242
bin	0.0001683168	17433
bin	0.0001691712	17620
bin	0.0001700256	17603
bin	0.00017088	17574
bin	0.0001717344	17363
bin	0.0001725888	17517
bin	0.0001734432	17499
bin	0.0001742976	17512
bin	0.000175152	17516
bin	0.0001760064	17461
bin	0.0001768608	17413
bin	0.0001777152	17580
bin	0.0001785696	17429
bin	0.000179424	17629
bin	0.0001802784	17651
bin	0.0001811328	17523
bin	0.0001819872	17600
bin	0.0001828416	17461
bin	0.000183696	17672
bin	0.0001845504	17488
bin	0.0001854048	17436
bin	0.0001862592	17210
bin	0.0001871136	17399
bin	0.000187968	17434
bin	0.0001888224	17343
bin	0.0001896768	17389
bin	0.0001905312	17578
bin	0.0001913856	17295
bin	0.00019224	17309
bin	0.0001930944	17069
bin	0.0001939488	17160
bin	0.0001948032	17153
bin	0.0001956576	17328
bin	0.000196512	17309
bin	0.0001973664	17404
bin	0.0001982208	17267
bin	0.0001990752	17187
bin	0.0001999296	17051
bin	0.000200784	17314
bin	0.0002016384	17498
bin	0.0002024928	17381
bin	0.0002033472	17286
bin	0.0002042016	17333
bin	0.000205056	17172
bin	0.0002059104	17237
bin	0.0002067648	17228
bin	0.0002076192	16912
bin	0.0002084736	17099
bin	0.000209328	16973
bin	0.0002101824	16848
bin	0.0002110368	16759
bin	0.0002118912	16825
bin	0.0002127456	16755
bin	0.0002136	16877
bin	0.0002144544	17078
bin	0.0002153088	16783
bin	0.0002161632	16665
bin	0.0002170176	16841
bin	0.000217872	16727
bin	0.0002187264	16477
bin	0.0002195808	16564
bin	0.0002204352	16639
bin	0.0002212896	16686
bin	0.000222144	16835
bin	0.0002229984	16501
bin	0.0002238528	16440
bin	0.0002247072	16179
bin	0.0002255616	16335
bin	0.000226416	16242
bin	0.0002272704	16331
bin	0.0002281248	16380
bin	0.0002289792	16476
bin	0.0002298336	16499
bin	0.000230688	16160
bin	0.0002315424	16292
bin	0.0002323968	16086
bin	0.0002332512	16259
bin	0.0002341056	16251
bin	0.00023496	16024
bin	0.0002358144	16014
bin	0.0002366688	16145
bin	0.0002375232	15880
bin	0.0002383776	16055
bin	0.000239232	15957
bin	0.0002400864	15843
bin	0.0002409408	15709
bin	0.0002417952	15647
bin	0.0002426496	15486
bin	0.000243504	15527
bin	0.0002443584	15882
bin	0.0002452128	15643
bin	0.0002460672	15568
bin	0.0002469216	15640
bin	0.000247776	15885
bin	0.0002486304	15855
bin	0.0002494848	15537
bin	0.0002503392	15598
bin	0.0002511936	15411
bin	0.000252048	15402
bin	0.0002529024	15211
bin	0.0002537568	15422
bin	0.0002546112	15027
bin	0.0002554656	15213
bin	0.00025632	14954
bin	0.0002571744	14943
bin	0.0002580288	15140
bin	0.0002588832	15120
bin	0.0002597376	14777
bin	0.000260592	14715
bin	0.0002614464	14861
bin	0.0002623008	14618
bin	0.0002631552	14371
bin	0.0002640096	14613
bin	0.000264864	14462
bin	0.0002657184	14471
bin	0.0002665728	14380
bin	0.0002674272	14239
bin	0.0002682816	14082
bin	0.000269136	14009
bin	0.0002699904	14220
bin	0.0002708448	14189
bin	0.0002716992	14323
bin	0.0002725536	14148
bin	0.000273408	13935
bin	0.0002742624	14190
bin	0.0002751168	13946
bin	0.0002759712	13972
bin	0.0002768256	14019
bin	0.00027768	14049
bin	0.0002785344	14011
bin	0.0002793888	13836
bin	0.0002802432	13903
bin	0.0002810976	13644
bin	0.000281952	13627
bin	0.0002828064	13515
bin	0.0002836608	13639
bin	0.0002845152	13723
bin	0.0002853696	13637
bin	0.000286224	13372
bin	0.0002870784	13228
bin	0.0002879328	13118
bin	0.0002887872	13069
bin	0.0002896416	12993
bin	0.000290496	12861
bin	0.0002913504	12661
bin	0.0002922048	12869
bin	0.0002930592	12864
bin	0.0002939136	12760
bin	0.000294768	12726
bin	0.0002956224	12632
bin	0.0002964768	12591
bin	0.0002973312	12623
bin	0.0002981856	12280
bin	0.00029904	12356
bin	0.0002998944	12552
bin	0.0003007488	12530
bin	0.0003016032	12366
bin	0.0003024576	12246
bin	0.000303312	12361
bin	0.0003041664	12142
bin	0.0003050208	12097
bin	0.0003058752	11934
bin	0.0003067296	11994
bin	0.000307584	11947
bin	0.0003084384	11903
bin	0.0003092928	11831
bin	0.0003101472	11826
bin	0.0003110016	11580
bin	0.000311856	11790
bin	0.0003127104	11744
bin	0.0003135648	11630
bin	0.0003144192	11720
bin	0.0003152736	11489
bin	0.000316128	11472
bin	0.0003169824	11372
bin	0.0003178368	11356
bin	0.0003186912	11282
bin	0.0003195456	11001
bin	0.0003204	11161
bin	0.0003212544	10964
bin	0.0003221088	10844
bin	0.0003229632	10829
bin	0.0003238176	10894
bin	0.000324672	10599
bin	0.0003255264	10450
bin	0.0003263808	10369
bin	0.0003272352	10194
bin	0.0003280896	10119
bin	0.000328944	10129
bin	0.0003297984	9959
bin	0.0003306528	9872
bin	0.0003315072	9930
bin	0.0003323616	9652
bin	0.000333216	9596
bin	0.0003340704	9527
bin	0.0003349248	9558
bin	0.0003357792	9298
bin	0.0003366336	9246
bin	0.000337488	9287
bin	0.0003383424	9101
bin	0.0003391968	9127
bin	0.0003400512	9051
bin	0.0003409056	8916
bin	0.00034176	8939
bin	0.0003426144	8949
bin	0.0003434688	8908
bin	0.0003443232	8754
bin	0.0003451776	8949
bin	0.000346032	8919
bin	0.0003468864	8806
bin	0.0003477408	8636
bin	0.0003485952	8558
bin	0.0003494496	8434
bin	0.000350304	8432
bin	0.0003511584	8296
bin	0.0003520128	8297
bin	0.0003528672	8252
bin	0.0003537216	7962
bin	0.000354576	8037
bin	0.0003554304	7834
bin	0.0003562848	7772
bin	0.0003571392	7801
bin	0.0003579936	7733
bin	0.000358848	7726
bin	0.0003597024	7635
bin	0.0003605568	7415
bin	0.0003614112	7442
bin	0.0003622656	7194
bin	0.00036312	7120
bin	0.0003639744	7070
bin	0.0003648288	7096
bin	0.0003656832	6946
bin	0.0003665376	6800
bin	0.000367392	6778
bin	0.0003682464	6761
bin	0.0003691008	6629
bin	0.0003699552	6611
bin	0.0003708096	6756
bin	0.000371664	6571
bin	0.0003725184	6493
bin	0.0003733728	6481
bin	0.0003742272	6330
bin	0.0003750816	6236
bin	0.000375936	6178
bin	0.0003767904	6075
bin	0.0003776448	5900
bin	0.0003784992	5844
bin	0.0003793536	5644
bin	0.000380208	5445
bin	0.0003810624	5332
bin	0.0003819168	5081
bin	0.0003827712	5042
bin	0.0003836256	4671
bin	0.00038448	4593
bin	0.0003853344	4618
bin	0.0003861888	4524
bin	0.0003870432	4364
bin	0.0003878976	4358
bin	0.000388752	4237
bin	0.0003896064	4143
bin	0.0003904608	4011
bin	0.0003913152	4126
bin	0.0003921696	4150
bin	0.000393024	3961
bin	0.0003938784	3906
bin	0.0003947328	3816
bin	0.0003955872	3865
bin	0.0003964416	3911
bin	0.000397296	3741
bin	0.0003981504	3717
bin	0.0003990048	3564
bin	0.0003998592	3475
bin	0.0004007136	3471
bin	0.000401568	3342
bin	0.0004024224	3249
bin	0.0004032768	3262
bin	0.0004041312	3299
bin	0.0004049856	3160
bin	0.00040584	3134
bin	0.0004066944	3044
bin	0.0004075488	3052
bin	0.0004084032	2993
bin	0.0004092576	2960
bin	0.000410112	2866
bin	0.0004109664	2785
bin	0.0004118208	2686
bin	0.0004126752	2621
bin	0.0004135296	2603
bin	0.000414384	2625
bin	0.0004152384	2631
bin	0.0004160928	2563
bin	0.0004169472	2447
bin	0.0004178016	2397
bin	0.000418656	2405
bin	0.0004195104	2487
bin	0.0004203648	2374
bin	0.0004212192	2255
bin	0.0004220736	2252
bin	0.000422928	2195
bin	0.0004237824	2084
bin	0.0004246368	2006
bin	0.0004254912	1966
bin	0.0004263456	1906
bin	0.0004272	45679
