version 2
run Butterfly-89-20120709-12:12:27-22840
attr alg 1
attr buf 8
attr configname Butterfly
attr datetime 20120709-12:12:27
attr delta 2.2
attr experiment Butterfly
attr ext true
attr inifile altro.ini
attr iterationvars "$buf=8, $ext=true, $ofedge=2, $delta=2.2, $alg=1"
attr iterationvars2 "$buf=8, $ext=true, $ofedge=2, $delta=2.2, $alg=1, $repetition=0"
attr measurement "$buf=8, $ext=true, $ofedge=2, $delta=2.2, $alg=1"
attr network Torus3d_bub
attr ofedge 2
attr processid 22840
attr repetition 0
attr replication #0
attr resultdir altro-results
attr runnumber 89
attr seedset 89

scalar . 	alg 	1
scalar . 	buf 	8
scalar . 	delta 	2.2
scalar . 	ofedge 	2
scalar Torus3d_bub.timer 	#endTime 	0.001001648331791
scalar Torus3d_bub.timer 	#totalHops 	46698148
scalar Torus3d_bub.timer 	#totalPacks 	6291456
scalar Torus3d_bub.timer 	#totalDerouted 	3906949
scalar Torus3d_bub.timer 	#totalOutFlanked 	3906949
scalar Torus3d_bub.timer 	#totalCQRed 	0
scalar Torus3d_bub.timer 	#LB 	0.000786432
scalar Torus3d_bub.timer 	#ratio 	0.78513783235062
statistic Torus3d_bub.timer 	"Hop Times"
field count 6291456
field mean 5.7262571657141e-05
field stddev 7.939037090944e-05
field sum 360.26495002775
field sqrsum 0.060283675082455
field min 5.41727252e-07
field max 0.000691938424225
bin	-INF	0
bin	0	0
bin	7.12e-08	0
bin	1.424e-07	0
bin	2.136e-07	0
bin	2.848e-07	0
bin	3.56e-07	0
bin	4.272e-07	0
bin	4.984e-07	1
bin	5.696e-07	1
bin	6.408e-07	7
bin	7.12e-07	4109
bin	7.832e-07	2088
bin	8.544e-07	1223
bin	9.256e-07	4594
bin	9.968e-07	9004
bin	1.068e-06	3615
bin	1.1392e-06	2868
bin	1.2104e-06	5796
bin	1.2816e-06	9798
bin	1.3528e-06	3250
bin	1.424e-06	6932
bin	1.4952e-06	14839
bin	1.5664e-06	8870
bin	1.6376e-06	10709
bin	1.7088e-06	14707
bin	1.78e-06	12900
bin	1.8512e-06	7516
bin	1.9224e-06	8583
bin	1.9936e-06	14795
bin	2.0648e-06	16815
bin	2.136e-06	8226
bin	2.2072e-06	10462
bin	2.2784e-06	15433
bin	2.3496e-06	8732
bin	2.4208e-06	12456
bin	2.492e-06	17107
bin	2.5632e-06	8491
bin	2.6344e-06	8575
bin	2.7056e-06	11350
bin	2.7768e-06	15482
bin	2.848e-06	6306
bin	2.9192e-06	9146
bin	2.9904e-06	5646
bin	3.0616e-06	9425
bin	3.1328e-06	5105
bin	3.204e-06	5509
bin	3.2752e-06	9188
bin	3.3464e-06	5693
bin	3.4176e-06	7368
bin	3.4888e-06	5508
bin	3.56e-06	9800
bin	3.6312e-06	6068
bin	3.7024e-06	7441
bin	3.7736e-06	5524
bin	3.8448e-06	9561
bin	3.916e-06	5366
bin	3.9872e-06	5538
bin	4.0584e-06	9658
bin	4.1296e-06	5487
bin	4.2008e-06	5303
bin	4.272e-06	5313
bin	4.3432e-06	9569
bin	4.4144e-06	5513
bin	4.4856e-06	5181
bin	4.5568e-06	5402
bin	4.628e-06	11703
bin	4.6992e-06	5532
bin	4.7704e-06	5552
bin	4.8416e-06	9686
bin	4.9128e-06	5556
bin	4.984e-06	5495
bin	5.0552e-06	5574
bin	5.1264e-06	11661
bin	5.1976e-06	5647
bin	5.2688e-06	5709
bin	5.34e-06	5693
bin	5.4112e-06	9983
bin	5.4824e-06	5837
bin	5.5536e-06	5880
bin	5.6248e-06	10022
bin	5.696e-06	5976
bin	5.7672e-06	5791
bin	5.8384e-06	6059
bin	5.9096e-06	10016
bin	5.9808e-06	5920
bin	6.052e-06	5796
bin	6.1232e-06	5926
bin	6.1944e-06	10105
bin	6.2656e-06	5927
bin	6.3368e-06	5782
bin	6.408e-06	10053
bin	6.4792e-06	6096
bin	6.5504e-06	5776
bin	6.6216e-06	6036
bin	6.6928e-06	10166
bin	6.764e-06	5818
bin	6.8352e-06	5748
bin	6.9064e-06	5841
bin	6.9776e-06	10171
bin	7.0488e-06	5990
bin	7.12e-06	5932
bin	7.1912e-06	10069
bin	7.2624e-06	6121
bin	7.3336e-06	5877
bin	7.4048e-06	6068
bin	7.476e-06	10282
bin	7.5472e-06	5894
bin	7.6184e-06	5965
bin	7.6896e-06	5844
bin	7.7608e-06	10085
bin	7.832e-06	5889
bin	7.9032e-06	5956
bin	7.9744e-06	10186
bin	8.0456e-06	6101
bin	8.1168e-06	5943
bin	8.188e-06	5951
bin	8.2592e-06	8229
bin	8.3304e-06	5978
bin	8.4016e-06	5889
bin	8.4728e-06	5904
bin	8.544e-06	10218
bin	8.6152e-06	5912
bin	8.6864e-06	6079
bin	8.7576e-06	10319
bin	8.8288e-06	6015
bin	8.9e-06	5786
bin	8.9712e-06	6049
bin	9.0424e-06	10135
bin	9.1136e-06	6014
bin	9.1848e-06	5805
bin	9.256e-06	5859
bin	9.3272e-06	8257
bin	9.3984e-06	5907
bin	9.4696e-06	6118
bin	9.5408e-06	10242
bin	9.612e-06	6337
bin	9.6832e-06	6153
bin	9.7544e-06	6161
bin	9.8256e-06	10202
bin	9.8968e-06	6195
bin	9.968e-06	6070
bin	1.00392e-05	6036
bin	1.01104e-05	6147
bin	1.01816e-05	6046
bin	1.02528e-05	6094
bin	1.0324e-05	10216
bin	1.03952e-05	6100
bin	1.04664e-05	6026
bin	1.05376e-05	6051
bin	1.06088e-05	8154
bin	1.068e-05	6079
bin	1.07512e-05	5957
bin	1.08224e-05	5931
bin	1.08936e-05	8084
bin	1.09648e-05	6023
bin	1.1036e-05	5893
bin	1.11072e-05	8128
bin	1.11784e-05	6149
bin	1.12496e-05	5958
bin	1.13208e-05	6030
bin	1.1392e-05	10211
bin	1.14632e-05	6022
bin	1.15344e-05	6060
bin	1.16056e-05	6021
bin	1.16768e-05	10238
bin	1.1748e-05	6049
bin	1.18192e-05	5984
bin	1.18904e-05	10167
bin	1.19616e-05	6058
bin	1.20328e-05	5867
bin	1.2104e-05	5915
bin	1.21752e-05	10098
bin	1.22464e-05	5908
bin	1.23176e-05	5934
bin	1.23888e-05	5904
bin	1.246e-05	10251
bin	1.25312e-05	5978
bin	1.26024e-05	5933
bin	1.26736e-05	8001
bin	1.27448e-05	6072
bin	1.2816e-05	5897
bin	1.28872e-05	5975
bin	1.29584e-05	6097
bin	1.30296e-05	5915
bin	1.31008e-05	6038
bin	1.3172e-05	5820
bin	1.32432e-05	6094
bin	1.33144e-05	6045
bin	1.33856e-05	6113
bin	1.34568e-05	6209
bin	1.3528e-05	6131
bin	1.35992e-05	6013
bin	1.36704e-05	6180
bin	1.37416e-05	6177
bin	1.38128e-05	6040
bin	1.3884e-05	6009
bin	1.39552e-05	6032
bin	1.40264e-05	6136
bin	1.40976e-05	6056
bin	1.41688e-05	6012
bin	1.424e-05	5991
bin	1.43112e-05	6120
bin	1.43824e-05	6045
bin	1.44536e-05	6126
bin	1.45248e-05	6081
bin	1.4596e-05	5900
bin	1.46672e-05	5891
bin	1.47384e-05	5975
bin	1.48096e-05	6153
bin	1.48808e-05	6073
bin	1.4952e-05	6026
bin	1.50232e-05	6088
bin	1.50944e-05	6101
bin	1.51656e-05	6052
bin	1.52368e-05	5997
bin	1.5308e-05	6121
bin	1.53792e-05	6039
bin	1.54504e-05	6104
bin	1.55216e-05	6027
bin	1.55928e-05	6192
bin	1.5664e-05	5980
bin	1.57352e-05	6070
bin	1.58064e-05	6158
bin	1.58776e-05	6082
bin	1.59488e-05	6114
bin	1.602e-05	6090
bin	1.60912e-05	6342
bin	1.61624e-05	6338
bin	1.62336e-05	6244
bin	1.63048e-05	6127
bin	1.6376e-05	6466
bin	1.64472e-05	6226
bin	1.65184e-05	6307
bin	1.65896e-05	6311
bin	1.66608e-05	6246
bin	1.6732e-05	6333
bin	1.68032e-05	6215
bin	1.68744e-05	6338
bin	1.69456e-05	6268
bin	1.70168e-05	6454
bin	1.7088e-05	6213
bin	1.71592e-05	6498
bin	1.72304e-05	6399
bin	1.73016e-05	6384
bin	1.73728e-05	6329
bin	1.7444e-05	6460
bin	1.75152e-05	6332
bin	1.75864e-05	6201
bin	1.76576e-05	6410
bin	1.77288e-05	6336
bin	1.78e-05	6337
bin	1.78712e-05	6439
bin	1.79424e-05	6583
bin	1.80136e-05	6413
bin	1.80848e-05	6331
bin	1.8156e-05	6550
bin	1.82272e-05	6355
bin	1.82984e-05	6430
bin	1.83696e-05	6371
bin	1.84408e-05	6515
bin	1.8512e-05	6457
bin	1.85832e-05	6441
bin	1.86544e-05	6519
bin	1.87256e-05	6596
bin	1.87968e-05	6508
bin	1.8868e-05	6464
bin	1.89392e-05	6515
bin	1.90104e-05	6566
bin	1.90816e-05	6553
bin	1.91528e-05	6438
bin	1.9224e-05	6657
bin	1.92952e-05	6498
bin	1.93664e-05	6555
bin	1.94376e-05	6632
bin	1.95088e-05	6742
bin	1.958e-05	6591
bin	1.96512e-05	6390
bin	1.97224e-05	6688
bin	1.97936e-05	6456
bin	1.98648e-05	6665
bin	1.9936e-05	6634
bin	2.00072e-05	6675
bin	2.00784e-05	6547
bin	2.01496e-05	6581
bin	2.02208e-05	6738
bin	2.0292e-05	6561
bin	2.03632e-05	6619
bin	2.04344e-05	6489
bin	2.05056e-05	6614
bin	2.05768e-05	6481
bin	2.0648e-05	6755
bin	2.07192e-05	6730
bin	2.07904e-05	6776
bin	2.08616e-05	6596
bin	2.09328e-05	6600
bin	2.1004e-05	6621
bin	2.10752e-05	6635
bin	2.11464e-05	6611
bin	2.12176e-05	6551
bin	2.12888e-05	6721
bin	2.136e-05	6521
bin	2.14312e-05	6606
bin	2.15024e-05	6769
bin	2.15736e-05	6688
bin	2.16448e-05	6546
bin	2.1716e-05	6828
bin	2.17872e-05	6678
bin	2.18584e-05	6750
bin	2.19296e-05	6638
bin	2.20008e-05	6808
bin	2.2072e-05	6668
bin	2.21432e-05	6609
bin	2.22144e-05	6663
bin	2.22856e-05	6693
bin	2.23568e-05	6771
bin	2.2428e-05	6640
bin	2.24992e-05	6851
bin	2.25704e-05	6737
bin	2.26416e-05	6600
bin	2.27128e-05	6633
bin	2.2784e-05	6588
bin	2.28552e-05	6845
bin	2.29264e-05	6737
bin	2.29976e-05	6772
bin	2.30688e-05	6693
bin	2.314e-05	6847
bin	2.32112e-05	6735
bin	2.32824e-05	6844
bin	2.33536e-05	6820
bin	2.34248e-05	6772
bin	2.3496e-05	6815
bin	2.35672e-05	6779
bin	2.36384e-05	6997
bin	2.37096e-05	6844
bin	2.37808e-05	6698
bin	2.3852e-05	6741
bin	2.39232e-05	6889
bin	2.39944e-05	6649
bin	2.40656e-05	6735
bin	2.41368e-05	6746
bin	2.4208e-05	6776
bin	2.42792e-05	6645
bin	2.43504e-05	6669
bin	2.44216e-05	6722
bin	2.44928e-05	6629
bin	2.4564e-05	6687
bin	2.46352e-05	6555
bin	2.47064e-05	6726
bin	2.47776e-05	6447
bin	2.48488e-05	6671
bin	2.492e-05	6654
bin	2.49912e-05	6585
bin	2.50624e-05	6655
bin	2.51336e-05	6818
bin	2.52048e-05	6663
bin	2.5276e-05	6639
bin	2.53472e-05	6766
bin	2.54184e-05	6781
bin	2.54896e-05	6720
bin	2.55608e-05	6675
bin	2.5632e-05	6774
bin	2.57032e-05	6780
bin	2.57744e-05	6845
bin	2.58456e-05	6744
bin	2.59168e-05	6858
bin	2.5988e-05	6861
bin	2.60592e-05	6747
bin	2.61304e-05	6821
bin	2.62016e-05	6887
bin	2.62728e-05	6878
bin	2.6344e-05	6654
bin	2.64152e-05	6694
bin	2.64864e-05	6778
bin	2.65576e-05	6600
bin	2.66288e-05	6643
bin	2.67e-05	6652
bin	2.67712e-05	6841
bin	2.68424e-05	6755
bin	2.69136e-05	6783
bin	2.69848e-05	6761
bin	2.7056e-05	6784
bin	2.71272e-05	6637
bin	2.71984e-05	6740
bin	2.72696e-05	6863
bin	2.73408e-05	6832
bin	2.7412e-05	6739
bin	2.74832e-05	6647
bin	2.75544e-05	6811
bin	2.76256e-05	6702
bin	2.76968e-05	6847
bin	2.7768e-05	6795
bin	2.78392e-05	6864
bin	2.79104e-05	6698
bin	2.79816e-05	6776
bin	2.80528e-05	6851
bin	2.8124e-05	6799
bin	2.81952e-05	6761
bin	2.82664e-05	6861
bin	2.83376e-05	6894
bin	2.84088e-05	6734
bin	2.848e-05	6726
bin	2.85512e-05	6730
bin	2.86224e-05	6727
bin	2.86936e-05	6605
bin	2.87648e-05	6575
bin	2.8836e-05	6817
bin	2.89072e-05	6714
bin	2.89784e-05	6741
bin	2.90496e-05	6689
bin	2.91208e-05	6744
bin	2.9192e-05	6603
bin	2.92632e-05	6703
bin	2.93344e-05	6631
bin	2.94056e-05	6846
bin	2.94768e-05	6692
bin	2.9548e-05	6683
bin	2.96192e-05	6671
bin	2.96904e-05	6655
bin	2.97616e-05	6774
bin	2.98328e-05	6649
bin	2.9904e-05	6730
bin	2.99752e-05	6730
bin	3.00464e-05	6823
bin	3.01176e-05	6757
bin	3.01888e-05	6959
bin	3.026e-05	6630
bin	3.03312e-05	6852
bin	3.04024e-05	6794
bin	3.04736e-05	6654
bin	3.05448e-05	6715
bin	3.0616e-05	6732
bin	3.06872e-05	6731
bin	3.07584e-05	6543
bin	3.08296e-05	6675
bin	3.09008e-05	6640
bin	3.0972e-05	6777
bin	3.10432e-05	6539
bin	3.11144e-05	6819
bin	3.11856e-05	6818
bin	3.12568e-05	6793
bin	3.1328e-05	6762
bin	3.13992e-05	6782
bin	3.14704e-05	6781
bin	3.15416e-05	6624
bin	3.16128e-05	6791
bin	3.1684e-05	6590
bin	3.17552e-05	6769
bin	3.18264e-05	6600
bin	3.18976e-05	6662
bin	3.19688e-05	6642
bin	3.204e-05	6578
bin	3.21112e-05	6646
bin	3.21824e-05	6641
bin	3.22536e-05	6733
bin	3.23248e-05	6783
bin	3.2396e-05	6821
bin	3.24672e-05	6696
bin	3.25384e-05	6883
bin	3.26096e-05	6706
bin	3.26808e-05	6931
bin	3.2752e-05	6697
bin	3.28232e-05	6783
bin	3.28944e-05	6645
bin	3.29656e-05	6678
bin	3.30368e-05	6749
bin	3.3108e-05	6639
bin	3.31792e-05	6639
bin	3.32504e-05	6699
bin	3.33216e-05	6940
bin	3.33928e-05	6732
bin	3.3464e-05	6796
bin	3.35352e-05	6876
bin	3.36064e-05	6679
bin	3.36776e-05	6643
bin	3.37488e-05	6917
bin	3.382e-05	6831
bin	3.38912e-05	6736
bin	3.39624e-05	6708
bin	3.40336e-05	6859
bin	3.41048e-05	6793
bin	3.4176e-05	6494
bin	3.42472e-05	6689
bin	3.43184e-05	6714
bin	3.43896e-05	6629
bin	3.44608e-05	6523
bin	3.4532e-05	6620
bin	3.46032e-05	6753
bin	3.46744e-05	6703
bin	3.47456e-05	6665
bin	3.48168e-05	6665
bin	3.4888e-05	6729
bin	3.49592e-05	6698
bin	3.50304e-05	6685
bin	3.51016e-05	6686
bin	3.51728e-05	6624
bin	3.5244e-05	6649
bin	3.53152e-05	6726
bin	3.53864e-05	6767
bin	3.54576e-05	6532
bin	3.55288e-05	6670
bin	3.56e-05	2934976
statistic Torus3d_bub.timer 	"Life Times"
field count 6291456
field mean 0.00025666771245148
field stddev 0.00015701532591695
field sum 1614.8136195092
field sqrsum 0.56957887013516
field min 6.92030289e-07
field max 0.000795728271484
bin	-INF	0
bin	0	4105
bin	8.544e-07	12459
bin	1.7088e-06	20882
bin	2.5632e-06	23213
bin	3.4176e-06	24784
bin	4.272e-06	23290
bin	5.1264e-06	25692
bin	5.9808e-06	24631
bin	6.8352e-06	20220
bin	7.6896e-06	18524
bin	8.544e-06	26825
bin	9.3984e-06	20833
bin	1.02528e-05	24814
bin	1.11072e-05	20019
bin	1.19616e-05	28248
bin	1.2816e-05	12325
bin	1.36704e-05	15288
bin	1.45248e-05	16787
bin	1.53792e-05	11909
bin	1.62336e-05	15467
bin	1.7088e-05	12222
bin	1.79424e-05	8088
bin	1.87968e-05	10201
bin	1.96512e-05	9272
bin	2.05056e-05	10094
bin	2.136e-05	8733
bin	2.22144e-05	8526
bin	2.30688e-05	8407
bin	2.39232e-05	8731
bin	2.47776e-05	8363
bin	2.5632e-05	8624
bin	2.64864e-05	9084
bin	2.73408e-05	8782
bin	2.81952e-05	9037
bin	2.90496e-05	9408
bin	2.9904e-05	9558
bin	3.07584e-05	9452
bin	3.16128e-05	9730
bin	3.24672e-05	9724
bin	3.33216e-05	10086
bin	3.4176e-05	9712
bin	3.50304e-05	10171
bin	3.58848e-05	10265
bin	3.67392e-05	10129
bin	3.75936e-05	10267
bin	3.8448e-05	10313
bin	3.93024e-05	10172
bin	4.01568e-05	10174
bin	4.10112e-05	10145
bin	4.18656e-05	10439
bin	4.272e-05	10475
bin	4.35744e-05	10435
bin	4.44288e-05	10826
bin	4.52832e-05	10342
bin	4.61376e-05	10455
bin	4.6992e-05	10403
bin	4.78464e-05	10320
bin	4.87008e-05	10608
bin	4.95552e-05	10640
bin	5.04096e-05	10618
bin	5.1264e-05	10470
bin	5.21184e-05	10663
bin	5.29728e-05	10210
bin	5.38272e-05	10615
bin	5.46816e-05	10198
bin	5.5536e-05	10276
bin	5.63904e-05	10663
bin	5.72448e-05	10690
bin	5.80992e-05	10344
bin	5.89536e-05	10303
bin	5.9808e-05	10227
bin	6.06624e-05	10247
bin	6.15168e-05	9869
bin	6.23712e-05	9805
bin	6.32256e-05	10214
bin	6.408e-05	9789
bin	6.49344e-05	9762
bin	6.57888e-05	9856
bin	6.66432e-05	9804
bin	6.74976e-05	9714
bin	6.8352e-05	9773
bin	6.92064e-05	9766
bin	7.00608e-05	9756
bin	7.09152e-05	9584
bin	7.17696e-05	9504
bin	7.2624e-05	9653
bin	7.34784e-05	9410
bin	7.43328e-05	9402
bin	7.51872e-05	9357
bin	7.60416e-05	9541
bin	7.6896e-05	9486
bin	7.77504e-05	9532
bin	7.86048e-05	9492
bin	7.94592e-05	9492
bin	8.03136e-05	9367
bin	8.1168e-05	9171
bin	8.20224e-05	9319
bin	8.28768e-05	9125
bin	8.37312e-05	9316
bin	8.45856e-05	9325
bin	8.544e-05	9287
bin	8.62944e-05	9231
bin	8.71488e-05	9168
bin	8.80032e-05	9275
bin	8.88576e-05	9303
bin	8.9712e-05	9512
bin	9.05664e-05	9052
bin	9.14208e-05	9369
bin	9.22752e-05	9055
bin	9.31296e-05	9084
bin	9.3984e-05	9109
bin	9.48384e-05	9439
bin	9.56928e-05	9323
bin	9.65472e-05	9125
bin	9.74016e-05	9083
bin	9.8256e-05	9105
bin	9.91104e-05	9208
bin	9.99648e-05	9211
bin	0.0001008192	9098
bin	0.0001016736	8936
bin	0.000102528	8967
bin	0.0001033824	9015
bin	0.0001042368	9122
bin	0.0001050912	8819
bin	0.0001059456	8967
bin	0.0001068	8951
bin	0.0001076544	8837
bin	0.0001085088	8859
bin	0.0001093632	8987
bin	0.0001102176	8854
bin	0.000111072	8843
bin	0.0001119264	8998
bin	0.0001127808	8870
bin	0.0001136352	8968
bin	0.0001144896	8954
bin	0.000115344	9188
bin	0.0001161984	9213
bin	0.0001170528	9058
bin	0.0001179072	8955
bin	0.0001187616	9015
bin	0.000119616	8788
bin	0.0001204704	8933
bin	0.0001213248	9090
bin	0.0001221792	8928
bin	0.0001230336	8868
bin	0.000123888	9020
bin	0.0001247424	9075
bin	0.0001255968	9189
bin	0.0001264512	9055
bin	0.0001273056	9111
bin	0.00012816	9031
bin	0.0001290144	9144
bin	0.0001298688	9131
bin	0.0001307232	9038
bin	0.0001315776	9136
bin	0.000132432	9135
bin	0.0001332864	9241
bin	0.0001341408	9300
bin	0.0001349952	9198
bin	0.0001358496	9061
bin	0.000136704	9175
bin	0.0001375584	9247
bin	0.0001384128	9233
bin	0.0001392672	9361
bin	0.0001401216	9300
bin	0.000140976	9274
bin	0.0001418304	9296
bin	0.0001426848	9296
bin	0.0001435392	9387
bin	0.0001443936	9393
bin	0.000145248	9250
bin	0.0001461024	9337
bin	0.0001469568	9355
bin	0.0001478112	9339
bin	0.0001486656	9390
bin	0.00014952	9456
bin	0.0001503744	9307
bin	0.0001512288	9343
bin	0.0001520832	9332
bin	0.0001529376	9454
bin	0.000153792	9296
bin	0.0001546464	9335
bin	0.0001555008	9608
bin	0.0001563552	9513
bin	0.0001572096	9341
bin	0.000158064	9366
bin	0.0001589184	9510
bin	0.0001597728	9613
bin	0.0001606272	9608
bin	0.0001614816	9486
bin	0.000162336	9500
bin	0.0001631904	9775
bin	0.0001640448	9743
bin	0.0001648992	9813
bin	0.0001657536	9699
bin	0.000166608	9765
bin	0.0001674624	9790
bin	0.0001683168	9733
bin	0.0001691712	9661
bin	0.0001700256	9782
bin	0.00017088	9775
bin	0.0001717344	9885
bin	0.0001725888	9794
bin	0.0001734432	10147
bin	0.0001742976	10033
bin	0.000175152	10081
bin	0.0001760064	10163
bin	0.0001768608	9959
bin	0.0001777152	10098
bin	0.0001785696	10029
bin	0.000179424	10017
bin	0.0001802784	9999
bin	0.0001811328	9925
bin	0.0001819872	10063
bin	0.0001828416	10233
bin	0.000183696	10278
bin	0.0001845504	10290
bin	0.0001854048	10191
bin	0.0001862592	10283
bin	0.0001871136	10382
bin	0.000187968	10315
bin	0.0001888224	10087
bin	0.0001896768	10184
bin	0.0001905312	10169
bin	0.0001913856	10203
bin	0.00019224	10272
bin	0.0001930944	10348
bin	0.0001939488	10441
bin	0.0001948032	10379
bin	0.0001956576	10396
bin	0.000196512	10403
bin	0.0001973664	10495
bin	0.0001982208	10578
bin	0.0001990752	10716
bin	0.0001999296	10606
bin	0.000200784	10512
bin	0.0002016384	10483
bin	0.0002024928	10790
bin	0.0002033472	10780
bin	0.0002042016	10750
bin	0.000205056	10899
bin	0.0002059104	10819
bin	0.0002067648	10743
bin	0.0002076192	10824
bin	0.0002084736	10840
bin	0.000209328	10968
bin	0.0002101824	10800
bin	0.0002110368	10993
bin	0.0002118912	10749
bin	0.0002127456	10809
bin	0.0002136	10746
bin	0.0002144544	10923
bin	0.0002153088	10828
bin	0.0002161632	10882
bin	0.0002170176	10678
bin	0.000217872	11060
bin	0.0002187264	10870
bin	0.0002195808	10974
bin	0.0002204352	11095
bin	0.0002212896	11081
bin	0.000222144	10900
bin	0.0002229984	11067
bin	0.0002238528	11104
bin	0.0002247072	11140
bin	0.0002255616	10961
bin	0.000226416	10963
bin	0.0002272704	11031
bin	0.0002281248	11185
bin	0.0002289792	10860
bin	0.0002298336	10987
bin	0.000230688	11108
bin	0.0002315424	11141
bin	0.0002323968	11147
bin	0.0002332512	11148
bin	0.0002341056	11057
bin	0.00023496	11004
bin	0.0002358144	11010
bin	0.0002366688	11171
bin	0.0002375232	11087
bin	0.0002383776	11006
bin	0.000239232	10962
bin	0.0002400864	11041
bin	0.0002409408	11115
bin	0.0002417952	10881
bin	0.0002426496	11257
bin	0.000243504	11165
bin	0.0002443584	11304
bin	0.0002452128	11101
bin	0.0002460672	10956
bin	0.0002469216	10933
bin	0.000247776	11012
bin	0.0002486304	11054
bin	0.0002494848	11133
bin	0.0002503392	11051
bin	0.0002511936	11173
bin	0.000252048	11173
bin	0.0002529024	10991
bin	0.0002537568	10901
bin	0.0002546112	10939
bin	0.0002554656	10881
bin	0.00025632	11076
bin	0.0002571744	10899
bin	0.0002580288	11090
bin	0.0002588832	11258
bin	0.0002597376	10877
bin	0.000260592	11141
bin	0.0002614464	11012
bin	0.0002623008	11010
bin	0.0002631552	10819
bin	0.0002640096	10958
bin	0.000264864	10900
bin	0.0002657184	10748
bin	0.0002665728	10848
bin	0.0002674272	10900
bin	0.0002682816	10959
bin	0.000269136	11045
bin	0.0002699904	11078
bin	0.0002708448	11009
bin	0.0002716992	10910
bin	0.0002725536	10696
bin	0.000273408	10743
bin	0.0002742624	10754
bin	0.0002751168	10786
bin	0.0002759712	10655
bin	0.0002768256	10729
bin	0.00027768	10916
bin	0.0002785344	10683
bin	0.0002793888	10647
bin	0.0002802432	10659
bin	0.0002810976	10504
bin	0.000281952	10533
bin	0.0002828064	10537
bin	0.0002836608	10610
bin	0.0002845152	10547
bin	0.0002853696	10419
bin	0.000286224	10477
bin	0.0002870784	10496
bin	0.0002879328	10356
bin	0.0002887872	10547
bin	0.0002896416	10489
bin	0.000290496	10504
bin	0.0002913504	10412
bin	0.0002922048	10617
bin	0.0002930592	10609
bin	0.0002939136	10284
bin	0.000294768	10576
bin	0.0002956224	10454
bin	0.0002964768	10479
bin	0.0002973312	10394
bin	0.0002981856	10391
bin	0.00029904	10553
bin	0.0002998944	10402
bin	0.0003007488	10489
bin	0.0003016032	10407
bin	0.0003024576	10419
bin	0.000303312	10262
bin	0.0003041664	10315
bin	0.0003050208	10107
bin	0.0003058752	10227
bin	0.0003067296	10175
bin	0.000307584	10056
bin	0.0003084384	10074
bin	0.0003092928	10162
bin	0.0003101472	10055
bin	0.0003110016	10225
bin	0.000311856	10148
bin	0.0003127104	10110
bin	0.0003135648	10108
bin	0.0003144192	10031
bin	0.0003152736	10058
bin	0.000316128	10145
bin	0.0003169824	10044
bin	0.0003178368	10133
bin	0.0003186912	10105
bin	0.0003195456	10214
bin	0.0003204	10153
bin	0.0003212544	10111
bin	0.0003221088	10180
bin	0.0003229632	10127
bin	0.0003238176	10126
bin	0.000324672	10135
bin	0.0003255264	10213
bin	0.0003263808	10023
bin	0.0003272352	10231
bin	0.0003280896	10225
bin	0.000328944	10360
bin	0.0003297984	10173
bin	0.0003306528	10089
bin	0.0003315072	10050
bin	0.0003323616	10216
bin	0.000333216	10262
bin	0.0003340704	10303
bin	0.0003349248	10381
bin	0.0003357792	10185
bin	0.0003366336	10023
bin	0.000337488	10262
bin	0.0003383424	9945
bin	0.0003391968	10151
bin	0.0003400512	10100
bin	0.0003409056	10045
bin	0.00034176	10061
bin	0.0003426144	10105
bin	0.0003434688	9979
bin	0.0003443232	9893
bin	0.0003451776	9779
bin	0.000346032	10053
bin	0.0003468864	9933
bin	0.0003477408	9815
bin	0.0003485952	9766
bin	0.0003494496	9905
bin	0.000350304	9692
bin	0.0003511584	9905
bin	0.0003520128	9853
bin	0.0003528672	9964
bin	0.0003537216	9854
bin	0.000354576	9646
bin	0.0003554304	9733
bin	0.0003562848	9826
bin	0.0003571392	9844
bin	0.0003579936	9896
bin	0.000358848	9663
bin	0.0003597024	9746
bin	0.0003605568	9894
bin	0.0003614112	9895
bin	0.0003622656	9778
bin	0.00036312	9686
bin	0.0003639744	9808
bin	0.0003648288	9949
bin	0.0003656832	9891
bin	0.0003665376	9807
bin	0.000367392	9747
bin	0.0003682464	9735
bin	0.0003691008	9646
bin	0.0003699552	9729
bin	0.0003708096	9788
bin	0.000371664	9795
bin	0.0003725184	9567
bin	0.0003733728	9780
bin	0.0003742272	9674
bin	0.0003750816	9533
bin	0.000375936	9635
bin	0.0003767904	9783
bin	0.0003776448	9671
bin	0.0003784992	9750
bin	0.0003793536	9707
bin	0.000380208	9595
bin	0.0003810624	9606
bin	0.0003819168	9724
bin	0.0003827712	9617
bin	0.0003836256	9583
bin	0.00038448	9467
bin	0.0003853344	9393
bin	0.0003861888	9518
bin	0.0003870432	9665
bin	0.0003878976	9498
bin	0.000388752	9666
bin	0.0003896064	9538
bin	0.0003904608	9556
bin	0.0003913152	9652
bin	0.0003921696	9436
bin	0.000393024	9447
bin	0.0003938784	9469
bin	0.0003947328	9540
bin	0.0003955872	9379
bin	0.0003964416	9516
bin	0.000397296	9617
bin	0.0003981504	9477
bin	0.0003990048	9456
bin	0.0003998592	9516
bin	0.0004007136	9548
bin	0.000401568	9403
bin	0.0004024224	9364
bin	0.0004032768	9592
bin	0.0004041312	9448
bin	0.0004049856	9708
bin	0.00040584	9468
bin	0.0004066944	9629
bin	0.0004075488	9676
bin	0.0004084032	9606
bin	0.0004092576	9457
bin	0.000410112	9499
bin	0.0004109664	9394
bin	0.0004118208	9295
bin	0.0004126752	9220
bin	0.0004135296	9221
bin	0.000414384	9281
bin	0.0004152384	9313
bin	0.0004160928	9119
bin	0.0004169472	9338
bin	0.0004178016	9312
bin	0.000418656	9311
bin	0.0004195104	9217
bin	0.0004203648	9311
bin	0.0004212192	9419
bin	0.0004220736	9265
bin	0.000422928	9274
bin	0.0004237824	9480
bin	0.0004246368	9336
bin	0.0004254912	9233
bin	0.0004263456	9416
bin	0.0004272	1115084
