version 2
run Butterfly-83-20120709-12:10:27-22834
attr alg 3
attr buf 8
attr configname Butterfly
attr datetime 20120709-12:10:27
attr delta 1.8
attr experiment Butterfly
attr ext true
attr inifile altro.ini
attr iterationvars "$buf=8, $ext=true, $ofedge=2, $delta=1.8, $alg=3"
attr iterationvars2 "$buf=8, $ext=true, $ofedge=2, $delta=1.8, $alg=3, $repetition=0"
attr measurement "$buf=8, $ext=true, $ofedge=2, $delta=1.8, $alg=3"
attr network Torus3d_bub
attr ofedge 2
attr processid 22834
attr repetition 0
attr replication #0
attr resultdir altro-results
attr runnumber 83
attr seedset 83

scalar . 	alg 	3
scalar . 	buf 	8
scalar . 	delta 	1.8
scalar . 	ofedge 	2
scalar Torus3d_bub.timer 	#endTime 	0.000984453665168
scalar Torus3d_bub.timer 	#totalHops 	45960159
scalar Torus3d_bub.timer 	#totalPacks 	6291456
scalar Torus3d_bub.timer 	#totalDerouted 	3926046
scalar Torus3d_bub.timer 	#totalOutFlanked 	3725249
scalar Torus3d_bub.timer 	#totalCQRed 	200797
scalar Torus3d_bub.timer 	#LB 	0.000786432
scalar Torus3d_bub.timer 	#ratio 	0.79885120836621
statistic Torus3d_bub.timer 	"Hop Times"
field count 6291456
field mean 5.0345046163274e-05
field stddev 7.0428205306961e-05
field sum 316.74364275421
field sqrsum 0.04715292123495
field min 4.68749927e-07
field max 0.000661489999974
bin	-INF	0
bin	0	0
bin	7.12e-08	0
bin	1.424e-07	0
bin	2.136e-07	0
bin	2.848e-07	0
bin	3.56e-07	0
bin	4.272e-07	1
bin	4.984e-07	2062
bin	5.696e-07	2074
bin	6.408e-07	2082
bin	7.12e-07	7276
bin	7.832e-07	1143
bin	8.544e-07	3231
bin	9.256e-07	10451
bin	9.968e-07	2598
bin	1.068e-06	7424
bin	1.1392e-06	7910
bin	1.2104e-06	11974
bin	1.2816e-06	4242
bin	1.3528e-06	15540
bin	1.424e-06	5763
bin	1.4952e-06	14854
bin	1.5664e-06	6731
bin	1.6376e-06	12038
bin	1.7088e-06	13133
bin	1.78e-06	12341
bin	1.8512e-06	10446
bin	1.9224e-06	12655
bin	1.9936e-06	19100
bin	2.0648e-06	14521
bin	2.136e-06	12825
bin	2.2072e-06	5773
bin	2.2784e-06	16977
bin	2.3496e-06	9003
bin	2.4208e-06	11063
bin	2.492e-06	14158
bin	2.5632e-06	19441
bin	2.6344e-06	8407
bin	2.7056e-06	13480
bin	2.7768e-06	12345
bin	2.848e-06	11660
bin	2.9192e-06	8448
bin	2.9904e-06	6376
bin	3.0616e-06	12494
bin	3.1328e-06	7283
bin	3.204e-06	6054
bin	3.2752e-06	11691
bin	3.3464e-06	6922
bin	3.4176e-06	6865
bin	3.4888e-06	6970
bin	3.56e-06	10790
bin	3.6312e-06	6695
bin	3.7024e-06	6627
bin	3.7736e-06	6594
bin	3.8448e-06	13299
bin	3.916e-06	6412
bin	3.9872e-06	6717
bin	4.0584e-06	11998
bin	4.1296e-06	6160
bin	4.2008e-06	6277
bin	4.272e-06	6221
bin	4.3432e-06	10603
bin	4.4144e-06	6467
bin	4.4856e-06	7090
bin	4.5568e-06	7010
bin	4.628e-06	11017
bin	4.6992e-06	6742
bin	4.7704e-06	8405
bin	4.8416e-06	10559
bin	4.9128e-06	6144
bin	4.984e-06	6621
bin	5.0552e-06	6331
bin	5.1264e-06	10307
bin	5.1976e-06	6226
bin	5.2688e-06	6257
bin	5.34e-06	6310
bin	5.4112e-06	10270
bin	5.4824e-06	6399
bin	5.5536e-06	6238
bin	5.6248e-06	10335
bin	5.696e-06	6004
bin	5.7672e-06	6172
bin	5.8384e-06	6227
bin	5.9096e-06	12364
bin	5.9808e-06	6246
bin	6.052e-06	6099
bin	6.1232e-06	6463
bin	6.1944e-06	10388
bin	6.2656e-06	6229
bin	6.3368e-06	6483
bin	6.408e-06	10652
bin	6.4792e-06	6223
bin	6.5504e-06	6699
bin	6.6216e-06	6500
bin	6.6928e-06	10560
bin	6.764e-06	6575
bin	6.8352e-06	6469
bin	6.9064e-06	6751
bin	6.9776e-06	10567
bin	7.0488e-06	6599
bin	7.12e-06	6626
bin	7.1912e-06	10720
bin	7.2624e-06	6628
bin	7.3336e-06	6614
bin	7.4048e-06	6671
bin	7.476e-06	10635
bin	7.5472e-06	6627
bin	7.6184e-06	6744
bin	7.6896e-06	6698
bin	7.7608e-06	10885
bin	7.832e-06	6441
bin	7.9032e-06	6721
bin	7.9744e-06	10726
bin	8.0456e-06	6653
bin	8.1168e-06	6734
bin	8.188e-06	6797
bin	8.2592e-06	8791
bin	8.3304e-06	6680
bin	8.4016e-06	6714
bin	8.4728e-06	6884
bin	8.544e-06	10752
bin	8.6152e-06	6713
bin	8.6864e-06	6793
bin	8.7576e-06	10702
bin	8.8288e-06	6604
bin	8.9e-06	6721
bin	8.9712e-06	6735
bin	9.0424e-06	10823
bin	9.1136e-06	6847
bin	9.1848e-06	6887
bin	9.256e-06	7106
bin	9.3272e-06	8861
bin	9.3984e-06	6886
bin	9.4696e-06	6903
bin	9.5408e-06	10981
bin	9.612e-06	7064
bin	9.6832e-06	6917
bin	9.7544e-06	6999
bin	9.8256e-06	10959
bin	9.8968e-06	6802
bin	9.968e-06	6821
bin	1.00392e-05	6899
bin	1.01104e-05	6795
bin	1.01816e-05	6970
bin	1.02528e-05	6959
bin	1.0324e-05	10898
bin	1.03952e-05	6879
bin	1.04664e-05	6846
bin	1.05376e-05	6918
bin	1.06088e-05	9041
bin	1.068e-05	6877
bin	1.07512e-05	6992
bin	1.08224e-05	6980
bin	1.08936e-05	8903
bin	1.09648e-05	6957
bin	1.1036e-05	6988
bin	1.11072e-05	8932
bin	1.11784e-05	7030
bin	1.12496e-05	6895
bin	1.13208e-05	7057
bin	1.1392e-05	11084
bin	1.14632e-05	6993
bin	1.15344e-05	7124
bin	1.16056e-05	6971
bin	1.16768e-05	11157
bin	1.1748e-05	6991
bin	1.18192e-05	7020
bin	1.18904e-05	11189
bin	1.19616e-05	6989
bin	1.20328e-05	7025
bin	1.2104e-05	7103
bin	1.21752e-05	11100
bin	1.22464e-05	6973
bin	1.23176e-05	7102
bin	1.23888e-05	7000
bin	1.246e-05	11122
bin	1.25312e-05	7070
bin	1.26024e-05	7294
bin	1.26736e-05	9163
bin	1.27448e-05	7133
bin	1.2816e-05	6985
bin	1.28872e-05	7123
bin	1.29584e-05	7034
bin	1.30296e-05	7083
bin	1.31008e-05	7004
bin	1.3172e-05	7059
bin	1.32432e-05	7260
bin	1.33144e-05	7141
bin	1.33856e-05	7211
bin	1.34568e-05	7174
bin	1.3528e-05	7099
bin	1.35992e-05	7230
bin	1.36704e-05	7116
bin	1.37416e-05	7022
bin	1.38128e-05	7026
bin	1.3884e-05	7094
bin	1.39552e-05	7075
bin	1.40264e-05	7074
bin	1.40976e-05	7120
bin	1.41688e-05	7011
bin	1.424e-05	7033
bin	1.43112e-05	7079
bin	1.43824e-05	7029
bin	1.44536e-05	7142
bin	1.45248e-05	7022
bin	1.4596e-05	7172
bin	1.46672e-05	7162
bin	1.47384e-05	7061
bin	1.48096e-05	7240
bin	1.48808e-05	7240
bin	1.4952e-05	7402
bin	1.50232e-05	7042
bin	1.50944e-05	7231
bin	1.51656e-05	6992
bin	1.52368e-05	7394
bin	1.5308e-05	7110
bin	1.53792e-05	7063
bin	1.54504e-05	7407
bin	1.55216e-05	7250
bin	1.55928e-05	7360
bin	1.5664e-05	7228
bin	1.57352e-05	7390
bin	1.58064e-05	7104
bin	1.58776e-05	7289
bin	1.59488e-05	7108
bin	1.602e-05	7440
bin	1.60912e-05	7334
bin	1.61624e-05	7310
bin	1.62336e-05	7500
bin	1.63048e-05	7207
bin	1.6376e-05	7413
bin	1.64472e-05	7118
bin	1.65184e-05	7409
bin	1.65896e-05	7223
bin	1.66608e-05	7473
bin	1.6732e-05	7379
bin	1.68032e-05	7506
bin	1.68744e-05	7476
bin	1.69456e-05	7277
bin	1.70168e-05	7557
bin	1.7088e-05	7204
bin	1.71592e-05	7511
bin	1.72304e-05	7250
bin	1.73016e-05	7591
bin	1.73728e-05	7200
bin	1.7444e-05	7452
bin	1.75152e-05	7292
bin	1.75864e-05	7429
bin	1.76576e-05	7381
bin	1.77288e-05	7240
bin	1.78e-05	7473
bin	1.78712e-05	7219
bin	1.79424e-05	7687
bin	1.80136e-05	7272
bin	1.80848e-05	7446
bin	1.8156e-05	7210
bin	1.82272e-05	7545
bin	1.82984e-05	7271
bin	1.83696e-05	7737
bin	1.84408e-05	7555
bin	1.8512e-05	7387
bin	1.85832e-05	7789
bin	1.86544e-05	7385
bin	1.87256e-05	7677
bin	1.87968e-05	7296
bin	1.8868e-05	7677
bin	1.89392e-05	7179
bin	1.90104e-05	7606
bin	1.90816e-05	7381
bin	1.91528e-05	7484
bin	1.9224e-05	7608
bin	1.92952e-05	7360
bin	1.93664e-05	7432
bin	1.94376e-05	7392
bin	1.95088e-05	7578
bin	1.958e-05	7255
bin	1.96512e-05	7675
bin	1.97224e-05	7413
bin	1.97936e-05	7642
bin	1.98648e-05	7377
bin	1.9936e-05	7546
bin	2.00072e-05	7429
bin	2.00784e-05	7434
bin	2.01496e-05	7582
bin	2.02208e-05	7350
bin	2.0292e-05	7521
bin	2.03632e-05	7393
bin	2.04344e-05	7505
bin	2.05056e-05	7342
bin	2.05768e-05	7545
bin	2.0648e-05	7478
bin	2.07192e-05	7487
bin	2.07904e-05	7544
bin	2.08616e-05	7594
bin	2.09328e-05	7718
bin	2.1004e-05	7434
bin	2.10752e-05	7580
bin	2.11464e-05	7561
bin	2.12176e-05	7549
bin	2.12888e-05	7528
bin	2.136e-05	7539
bin	2.14312e-05	7453
bin	2.15024e-05	7414
bin	2.15736e-05	7491
bin	2.16448e-05	7519
bin	2.1716e-05	7597
bin	2.17872e-05	7296
bin	2.18584e-05	7701
bin	2.19296e-05	7426
bin	2.20008e-05	7488
bin	2.2072e-05	7439
bin	2.21432e-05	7552
bin	2.22144e-05	7365
bin	2.22856e-05	7430
bin	2.23568e-05	7411
bin	2.2428e-05	7289
bin	2.24992e-05	7555
bin	2.25704e-05	7234
bin	2.26416e-05	7496
bin	2.27128e-05	7426
bin	2.2784e-05	7350
bin	2.28552e-05	7219
bin	2.29264e-05	7454
bin	2.29976e-05	7409
bin	2.30688e-05	7483
bin	2.314e-05	7425
bin	2.32112e-05	7453
bin	2.32824e-05	7436
bin	2.33536e-05	7400
bin	2.34248e-05	7494
bin	2.3496e-05	7416
bin	2.35672e-05	7427
bin	2.36384e-05	7393
bin	2.37096e-05	7461
bin	2.37808e-05	7501
bin	2.3852e-05	7353
bin	2.39232e-05	7493
bin	2.39944e-05	7348
bin	2.40656e-05	7597
bin	2.41368e-05	7434
bin	2.4208e-05	7465
bin	2.42792e-05	7332
bin	2.43504e-05	7426
bin	2.44216e-05	7517
bin	2.44928e-05	7416
bin	2.4564e-05	7274
bin	2.46352e-05	7503
bin	2.47064e-05	7400
bin	2.47776e-05	7444
bin	2.48488e-05	7468
bin	2.492e-05	7243
bin	2.49912e-05	7600
bin	2.50624e-05	7545
bin	2.51336e-05	7423
bin	2.52048e-05	7328
bin	2.5276e-05	7535
bin	2.53472e-05	7510
bin	2.54184e-05	7529
bin	2.54896e-05	7478
bin	2.55608e-05	7442
bin	2.5632e-05	7666
bin	2.57032e-05	7375
bin	2.57744e-05	7467
bin	2.58456e-05	7523
bin	2.59168e-05	7404
bin	2.5988e-05	7426
bin	2.60592e-05	7496
bin	2.61304e-05	7569
bin	2.62016e-05	7476
bin	2.62728e-05	7502
bin	2.6344e-05	7380
bin	2.64152e-05	7567
bin	2.64864e-05	7453
bin	2.65576e-05	7549
bin	2.66288e-05	7501
bin	2.67e-05	7469
bin	2.67712e-05	7438
bin	2.68424e-05	7666
bin	2.69136e-05	7590
bin	2.69848e-05	7395
bin	2.7056e-05	7533
bin	2.71272e-05	7457
bin	2.71984e-05	7518
bin	2.72696e-05	7374
bin	2.73408e-05	7571
bin	2.7412e-05	7581
bin	2.74832e-05	7319
bin	2.75544e-05	7398
bin	2.76256e-05	7341
bin	2.76968e-05	7399
bin	2.7768e-05	7424
bin	2.78392e-05	7545
bin	2.79104e-05	7520
bin	2.79816e-05	7512
bin	2.80528e-05	7357
bin	2.8124e-05	7516
bin	2.81952e-05	7452
bin	2.82664e-05	7191
bin	2.83376e-05	7298
bin	2.84088e-05	7554
bin	2.848e-05	7336
bin	2.85512e-05	7367
bin	2.86224e-05	7565
bin	2.86936e-05	7354
bin	2.87648e-05	7414
bin	2.8836e-05	7266
bin	2.89072e-05	7507
bin	2.89784e-05	7395
bin	2.90496e-05	7391
bin	2.91208e-05	7233
bin	2.9192e-05	7706
bin	2.92632e-05	7505
bin	2.93344e-05	7335
bin	2.94056e-05	7394
bin	2.94768e-05	7264
bin	2.9548e-05	7557
bin	2.96192e-05	7197
bin	2.96904e-05	7383
bin	2.97616e-05	7503
bin	2.98328e-05	7433
bin	2.9904e-05	7214
bin	2.99752e-05	7421
bin	3.00464e-05	7346
bin	3.01176e-05	7358
bin	3.01888e-05	7372
bin	3.026e-05	7262
bin	3.03312e-05	7544
bin	3.04024e-05	7207
bin	3.04736e-05	7475
bin	3.05448e-05	7416
bin	3.0616e-05	7564
bin	3.06872e-05	7363
bin	3.07584e-05	7513
bin	3.08296e-05	7602
bin	3.09008e-05	7356
bin	3.0972e-05	7434
bin	3.10432e-05	7342
bin	3.11144e-05	7540
bin	3.11856e-05	7281
bin	3.12568e-05	7518
bin	3.1328e-05	7475
bin	3.13992e-05	7438
bin	3.14704e-05	7331
bin	3.15416e-05	7515
bin	3.16128e-05	7382
bin	3.1684e-05	7370
bin	3.17552e-05	7464
bin	3.18264e-05	7330
bin	3.18976e-05	7514
bin	3.19688e-05	7371
bin	3.204e-05	7372
bin	3.21112e-05	7381
bin	3.21824e-05	7281
bin	3.22536e-05	7171
bin	3.23248e-05	7559
bin	3.2396e-05	7567
bin	3.24672e-05	7159
bin	3.25384e-05	7330
bin	3.26096e-05	7232
bin	3.26808e-05	7464
bin	3.2752e-05	7037
bin	3.28232e-05	7419
bin	3.28944e-05	7303
bin	3.29656e-05	7225
bin	3.30368e-05	7113
bin	3.3108e-05	7158
bin	3.31792e-05	7303
bin	3.32504e-05	6970
bin	3.33216e-05	7157
bin	3.33928e-05	7054
bin	3.3464e-05	7237
bin	3.35352e-05	7061
bin	3.36064e-05	7014
bin	3.36776e-05	6989
bin	3.37488e-05	6893
bin	3.382e-05	6839
bin	3.38912e-05	6948
bin	3.39624e-05	6934
bin	3.40336e-05	6554
bin	3.41048e-05	6902
bin	3.4176e-05	6721
bin	3.42472e-05	6945
bin	3.43184e-05	6596
bin	3.43896e-05	6800
bin	3.44608e-05	6732
bin	3.4532e-05	6836
bin	3.46032e-05	6655
bin	3.46744e-05	6878
bin	3.47456e-05	6726
bin	3.48168e-05	6512
bin	3.4888e-05	6651
bin	3.49592e-05	6512
bin	3.50304e-05	6681
bin	3.51016e-05	6394
bin	3.51728e-05	6406
bin	3.5244e-05	6414
bin	3.53152e-05	6274
bin	3.53864e-05	6166
bin	3.54576e-05	6514
bin	3.55288e-05	6442
bin	3.56e-05	2530944
statistic Torus3d_bub.timer 	"Life Times"
field count 6291456
field mean 0.00022568240118186
field stddev 0.00014183597947434
field sum 1419.87089701
field sqrsum 0.44700787380001
field min 7.33332829e-07
field max 0.000815808999665
bin	-INF	0
bin	0	4169
bin	8.544e-07	19079
bin	1.7088e-06	27836
bin	2.5632e-06	20091
bin	3.4176e-06	18396
bin	4.272e-06	24876
bin	5.1264e-06	30225
bin	5.9808e-06	25448
bin	6.8352e-06	21575
bin	7.6896e-06	25903
bin	8.544e-06	24047
bin	9.3984e-06	21195
bin	1.02528e-05	26005
bin	1.11072e-05	34587
bin	1.19616e-05	32188
bin	1.2816e-05	16491
bin	1.36704e-05	16109
bin	1.45248e-05	12184
bin	1.53792e-05	19733
bin	1.62336e-05	16522
bin	1.7088e-05	17262
bin	1.79424e-05	9357
bin	1.87968e-05	10912
bin	1.96512e-05	11645
bin	2.05056e-05	9964
bin	2.136e-05	11659
bin	2.22144e-05	12082
bin	2.30688e-05	11663
bin	2.39232e-05	13370
bin	2.47776e-05	11451
bin	2.5632e-05	11021
bin	2.64864e-05	12120
bin	2.73408e-05	12463
bin	2.81952e-05	11639
bin	2.90496e-05	11325
bin	2.9904e-05	11377
bin	3.07584e-05	11163
bin	3.16128e-05	10935
bin	3.24672e-05	11395
bin	3.33216e-05	11861
bin	3.4176e-05	11328
bin	3.50304e-05	11474
bin	3.58848e-05	11652
bin	3.67392e-05	12670
bin	3.75936e-05	12298
bin	3.8448e-05	12015
bin	3.93024e-05	12288
bin	4.01568e-05	12171
bin	4.10112e-05	11967
bin	4.18656e-05	11688
bin	4.272e-05	11982
bin	4.35744e-05	11579
bin	4.44288e-05	11346
bin	4.52832e-05	11128
bin	4.61376e-05	11147
bin	4.6992e-05	11117
bin	4.78464e-05	10889
bin	4.87008e-05	10773
bin	4.95552e-05	10744
bin	5.04096e-05	10705
bin	5.1264e-05	10570
bin	5.21184e-05	10579
bin	5.29728e-05	10358
bin	5.38272e-05	10395
bin	5.46816e-05	10226
bin	5.5536e-05	10610
bin	5.63904e-05	10661
bin	5.72448e-05	10715
bin	5.80992e-05	10818
bin	5.89536e-05	10662
bin	5.9808e-05	10747
bin	6.06624e-05	10833
bin	6.15168e-05	11087
bin	6.23712e-05	10958
bin	6.32256e-05	11261
bin	6.408e-05	11128
bin	6.49344e-05	11223
bin	6.57888e-05	11136
bin	6.66432e-05	10928
bin	6.74976e-05	11221
bin	6.8352e-05	10987
bin	6.92064e-05	10989
bin	7.00608e-05	10729
bin	7.09152e-05	11182
bin	7.17696e-05	10918
bin	7.2624e-05	10969
bin	7.34784e-05	11368
bin	7.43328e-05	11241
bin	7.51872e-05	10917
bin	7.60416e-05	11181
bin	7.6896e-05	11230
bin	7.77504e-05	11024
bin	7.86048e-05	11051
bin	7.94592e-05	10966
bin	8.03136e-05	11040
bin	8.1168e-05	10881
bin	8.20224e-05	11005
bin	8.28768e-05	10993
bin	8.37312e-05	10994
bin	8.45856e-05	10841
bin	8.544e-05	10810
bin	8.62944e-05	10804
bin	8.71488e-05	10593
bin	8.80032e-05	10489
bin	8.88576e-05	10601
bin	8.9712e-05	10637
bin	9.05664e-05	10453
bin	9.14208e-05	10504
bin	9.22752e-05	10373
bin	9.31296e-05	10647
bin	9.3984e-05	10435
bin	9.48384e-05	10381
bin	9.56928e-05	10438
bin	9.65472e-05	10245
bin	9.74016e-05	10472
bin	9.8256e-05	10359
bin	9.91104e-05	10499
bin	9.99648e-05	10630
bin	0.0001008192	10653
bin	0.0001016736	10655
bin	0.000102528	10540
bin	0.0001033824	10533
bin	0.0001042368	10697
bin	0.0001050912	10600
bin	0.0001059456	10555
bin	0.0001068	10656
bin	0.0001076544	10470
bin	0.0001085088	10661
bin	0.0001093632	10766
bin	0.0001102176	10639
bin	0.000111072	10711
bin	0.0001119264	10860
bin	0.0001127808	10896
bin	0.0001136352	10984
bin	0.0001144896	10794
bin	0.000115344	10697
bin	0.0001161984	10800
bin	0.0001170528	10814
bin	0.0001179072	10551
bin	0.0001187616	10784
bin	0.000119616	10741
bin	0.0001204704	10766
bin	0.0001213248	10585
bin	0.0001221792	10678
bin	0.0001230336	10584
bin	0.000123888	10813
bin	0.0001247424	10820
bin	0.0001255968	11048
bin	0.0001264512	11148
bin	0.0001273056	10860
bin	0.00012816	10935
bin	0.0001290144	11044
bin	0.0001298688	10863
bin	0.0001307232	10773
bin	0.0001315776	11035
bin	0.000132432	10991
bin	0.0001332864	11060
bin	0.0001341408	11049
bin	0.0001349952	11041
bin	0.0001358496	11146
bin	0.000136704	11068
bin	0.0001375584	11133
bin	0.0001384128	11108
bin	0.0001392672	11030
bin	0.0001401216	11149
bin	0.000140976	10978
bin	0.0001418304	11081
bin	0.0001426848	11122
bin	0.0001435392	11228
bin	0.0001443936	11336
bin	0.000145248	11283
bin	0.0001461024	11208
bin	0.0001469568	11152
bin	0.0001478112	11274
bin	0.0001486656	11418
bin	0.00014952	11166
bin	0.0001503744	11078
bin	0.0001512288	11276
bin	0.0001520832	11192
bin	0.0001529376	11356
bin	0.000153792	11363
bin	0.0001546464	11390
bin	0.0001555008	11577
bin	0.0001563552	11509
bin	0.0001572096	11589
bin	0.000158064	11660
bin	0.0001589184	11527
bin	0.0001597728	11507
bin	0.0001606272	11566
bin	0.0001614816	11502
bin	0.000162336	11524
bin	0.0001631904	11752
bin	0.0001640448	11634
bin	0.0001648992	11732
bin	0.0001657536	11622
bin	0.000166608	11772
bin	0.0001674624	11854
bin	0.0001683168	11794
bin	0.0001691712	11635
bin	0.0001700256	11594
bin	0.00017088	11658
bin	0.0001717344	11614
bin	0.0001725888	11944
bin	0.0001734432	11944
bin	0.0001742976	11997
bin	0.000175152	11958
bin	0.0001760064	11823
bin	0.0001768608	11990
bin	0.0001777152	11807
bin	0.0001785696	12102
bin	0.000179424	12181
bin	0.0001802784	11780
bin	0.0001811328	12069
bin	0.0001819872	11921
bin	0.0001828416	12013
bin	0.000183696	11971
bin	0.0001845504	11872
bin	0.0001854048	12197
bin	0.0001862592	11998
bin	0.0001871136	12066
bin	0.000187968	12128
bin	0.0001888224	12075
bin	0.0001896768	12069
bin	0.0001905312	12036
bin	0.0001913856	12002
bin	0.00019224	12187
bin	0.0001930944	12012
bin	0.0001939488	11858
bin	0.0001948032	11992
bin	0.0001956576	12028
bin	0.000196512	12084
bin	0.0001973664	12004
bin	0.0001982208	12031
bin	0.0001990752	11836
bin	0.0001999296	12026
bin	0.000200784	12195
bin	0.0002016384	12184
bin	0.0002024928	12150
bin	0.0002033472	12143
bin	0.0002042016	12073
bin	0.000205056	12142
bin	0.0002059104	11939
bin	0.0002067648	11943
bin	0.0002076192	12185
bin	0.0002084736	12012
bin	0.000209328	12001
bin	0.0002101824	12166
bin	0.0002110368	11842
bin	0.0002118912	11970
bin	0.0002127456	11875
bin	0.0002136	11764
bin	0.0002144544	11873
bin	0.0002153088	11972
bin	0.0002161632	11763
bin	0.0002170176	11972
bin	0.000217872	11832
bin	0.0002187264	11778
bin	0.0002195808	11828
bin	0.0002204352	11835
bin	0.0002212896	11985
bin	0.000222144	11796
bin	0.0002229984	11903
bin	0.0002238528	11722
bin	0.0002247072	11849
bin	0.0002255616	12019
bin	0.000226416	11801
bin	0.0002272704	11710
bin	0.0002281248	11689
bin	0.0002289792	11868
bin	0.0002298336	11960
bin	0.000230688	11928
bin	0.0002315424	11933
bin	0.0002323968	11938
bin	0.0002332512	11981
bin	0.0002341056	11999
bin	0.00023496	11877
bin	0.0002358144	11847
bin	0.0002366688	11733
bin	0.0002375232	11827
bin	0.0002383776	11806
bin	0.000239232	11996
bin	0.0002400864	11691
bin	0.0002409408	11879
bin	0.0002417952	11971
bin	0.0002426496	11997
bin	0.000243504	11868
bin	0.0002443584	11787
bin	0.0002452128	11669
bin	0.0002460672	11889
bin	0.0002469216	11812
bin	0.000247776	11753
bin	0.0002486304	11650
bin	0.0002494848	11616
bin	0.0002503392	11753
bin	0.0002511936	11798
bin	0.000252048	11644
bin	0.0002529024	11691
bin	0.0002537568	11870
bin	0.0002546112	11802
bin	0.0002554656	11867
bin	0.00025632	11924
bin	0.0002571744	11665
bin	0.0002580288	11723
bin	0.0002588832	11881
bin	0.0002597376	11534
bin	0.000260592	11656
bin	0.0002614464	11448
bin	0.0002623008	11708
bin	0.0002631552	11507
bin	0.0002640096	11640
bin	0.000264864	11679
bin	0.0002657184	11589
bin	0.0002665728	11631
bin	0.0002674272	11490
bin	0.0002682816	11538
bin	0.000269136	11550
bin	0.0002699904	11468
bin	0.0002708448	11604
bin	0.0002716992	11358
bin	0.0002725536	11417
bin	0.000273408	11413
bin	0.0002742624	11486
bin	0.0002751168	11409
bin	0.0002759712	11444
bin	0.0002768256	11485
bin	0.00027768	11349
bin	0.0002785344	11277
bin	0.0002793888	11391
bin	0.0002802432	11358
bin	0.0002810976	11215
bin	0.000281952	11106
bin	0.0002828064	11071
bin	0.0002836608	11199
bin	0.0002845152	11148
bin	0.0002853696	11152
bin	0.000286224	11093
bin	0.0002870784	11223
bin	0.0002879328	11089
bin	0.0002887872	11209
bin	0.0002896416	11159
bin	0.000290496	10949
bin	0.0002913504	11183
bin	0.0002922048	11323
bin	0.0002930592	11231
bin	0.0002939136	11332
bin	0.000294768	11126
bin	0.0002956224	11287
bin	0.0002964768	11265
bin	0.0002973312	11251
bin	0.0002981856	11250
bin	0.00029904	11321
bin	0.0002998944	11555
bin	0.0003007488	11402
bin	0.0003016032	11332
bin	0.0003024576	11155
bin	0.000303312	11192
bin	0.0003041664	11337
bin	0.0003050208	11352
bin	0.0003058752	11098
bin	0.0003067296	11285
bin	0.000307584	11112
bin	0.0003084384	11205
bin	0.0003092928	11132
bin	0.0003101472	11011
bin	0.0003110016	11032
bin	0.000311856	11187
bin	0.0003127104	11112
bin	0.0003135648	11151
bin	0.0003144192	11242
bin	0.0003152736	11115
bin	0.000316128	10946
bin	0.0003169824	10929
bin	0.0003178368	11131
bin	0.0003186912	10979
bin	0.0003195456	10953
bin	0.0003204	10987
bin	0.0003212544	10973
bin	0.0003221088	10970
bin	0.0003229632	10817
bin	0.0003238176	10652
bin	0.000324672	10716
bin	0.0003255264	10858
bin	0.0003263808	10673
bin	0.0003272352	10665
bin	0.0003280896	10687
bin	0.000328944	10641
bin	0.0003297984	10618
bin	0.0003306528	10852
bin	0.0003315072	10645
bin	0.0003323616	10507
bin	0.000333216	10761
bin	0.0003340704	10675
bin	0.0003349248	10665
bin	0.0003357792	10823
bin	0.0003366336	10616
bin	0.000337488	10646
bin	0.0003383424	10598
bin	0.0003391968	10516
bin	0.0003400512	10541
bin	0.0003409056	10773
bin	0.00034176	10519
bin	0.0003426144	10644
bin	0.0003434688	10873
bin	0.0003443232	10629
bin	0.0003451776	10652
bin	0.000346032	10606
bin	0.0003468864	10769
bin	0.0003477408	10319
bin	0.0003485952	10387
bin	0.0003494496	10345
bin	0.000350304	10523
bin	0.0003511584	10485
bin	0.0003520128	10416
bin	0.0003528672	10412
bin	0.0003537216	10453
bin	0.000354576	10375
bin	0.0003554304	10488
bin	0.0003562848	10484
bin	0.0003571392	10453
bin	0.0003579936	10572
bin	0.000358848	10541
bin	0.0003597024	10466
bin	0.0003605568	10661
bin	0.0003614112	10590
bin	0.0003622656	10455
bin	0.00036312	10681
bin	0.0003639744	10493
bin	0.0003648288	10678
bin	0.0003656832	10676
bin	0.0003665376	10546
bin	0.000367392	10802
bin	0.0003682464	10726
bin	0.0003691008	10771
bin	0.0003699552	10534
bin	0.0003708096	10573
bin	0.000371664	10585
bin	0.0003725184	10516
bin	0.0003733728	10540
bin	0.0003742272	10723
bin	0.0003750816	10627
bin	0.000375936	10492
bin	0.0003767904	10634
bin	0.0003776448	10606
bin	0.0003784992	10559
bin	0.0003793536	10526
bin	0.000380208	10504
bin	0.0003810624	10492
bin	0.0003819168	10316
bin	0.0003827712	10374
bin	0.0003836256	10427
bin	0.00038448	10515
bin	0.0003853344	10357
bin	0.0003861888	10157
bin	0.0003870432	10252
bin	0.0003878976	10178
bin	0.000388752	10208
bin	0.0003896064	10099
bin	0.0003904608	10135
bin	0.0003913152	10097
bin	0.0003921696	10034
bin	0.000393024	10030
bin	0.0003938784	10035
bin	0.0003947328	10170
bin	0.0003955872	10022
bin	0.0003964416	9849
bin	0.000397296	9909
bin	0.0003981504	9989
bin	0.0003990048	9647
bin	0.0003998592	9887
bin	0.0004007136	9864
bin	0.000401568	9676
bin	0.0004024224	9707
bin	0.0004032768	9676
bin	0.0004041312	9414
bin	0.0004049856	9451
bin	0.00040584	9618
bin	0.0004066944	9573
bin	0.0004075488	9344
bin	0.0004084032	9374
bin	0.0004092576	9249
bin	0.000410112	9300
bin	0.0004109664	9179
bin	0.0004118208	9363
bin	0.0004126752	9205
bin	0.0004135296	9152
bin	0.000414384	9005
bin	0.0004152384	9009
bin	0.0004160928	8938
bin	0.0004169472	8814
bin	0.0004178016	8666
bin	0.000418656	8738
bin	0.0004195104	8633
bin	0.0004203648	8568
bin	0.0004212192	8499
bin	0.0004220736	8321
bin	0.000422928	8235
bin	0.0004237824	8281
bin	0.0004246368	8220
bin	0.0004254912	8299
bin	0.0004263456	8270
bin	0.0004272	546908
