version 2
run Butterfly-94-20120709-12:25:23-23624
attr alg 2
attr buf 8
attr configname Butterfly
attr datetime 20120709-12:25:23
attr delta 2.4
attr experiment Butterfly
attr ext true
attr inifile altro.ini
attr iterationvars "$buf=8, $ext=true, $ofedge=2, $delta=2.4, $alg=2"
attr iterationvars2 "$buf=8, $ext=true, $ofedge=2, $delta=2.4, $alg=2, $repetition=0"
attr measurement "$buf=8, $ext=true, $ofedge=2, $delta=2.4, $alg=2"
attr network Torus3d_bub
attr ofedge 2
attr processid 23624
attr repetition 0
attr replication #0
attr resultdir altro-results
attr runnumber 94
attr seedset 94

scalar . 	alg 	2
scalar . 	buf 	8
scalar . 	delta 	2.4
scalar . 	ofedge 	2
scalar Torus3d_bub.timer 	#endTime 	0.001147205998485
scalar Torus3d_bub.timer 	#totalHops 	42045728
scalar Torus3d_bub.timer 	#totalPacks 	6291456
scalar Torus3d_bub.timer 	#totalDerouted 	2261824
scalar Torus3d_bub.timer 	#totalOutFlanked 	0
scalar Torus3d_bub.timer 	#totalCQRed 	2261824
scalar Torus3d_bub.timer 	#LB 	0.000786432
scalar Torus3d_bub.timer 	#ratio 	0.68551942810495
statistic Torus3d_bub.timer 	"Hop Times"
field count 6291456
field mean 0.00013118128702577
field stddev 0.00015362930434166
field sum 825.321295346
field sqrsum 0.25675739881888
field min 7.33333333e-07
field max 0.00081778999846
bin	-INF	0
bin	0	0
bin	7.12e-08	0
bin	1.424e-07	0
bin	2.136e-07	0
bin	2.848e-07	0
bin	3.56e-07	0
bin	4.272e-07	0
bin	4.984e-07	0
bin	5.696e-07	0
bin	6.408e-07	0
bin	7.12e-07	4096
bin	7.832e-07	0
bin	8.544e-07	0
bin	9.256e-07	4096
bin	9.968e-07	0
bin	1.068e-06	0
bin	1.1392e-06	0
bin	1.2104e-06	6144
bin	1.2816e-06	0
bin	1.3528e-06	4096
bin	1.424e-06	2048
bin	1.4952e-06	12288
bin	1.5664e-06	4096
bin	1.6376e-06	4096
bin	1.7088e-06	4096
bin	1.78e-06	4096
bin	1.8512e-06	6144
bin	1.9224e-06	4096
bin	1.9936e-06	6144
bin	2.0648e-06	4096
bin	2.136e-06	6144
bin	2.2072e-06	2048
bin	2.2784e-06	10240
bin	2.3496e-06	4096
bin	2.4208e-06	2048
bin	2.492e-06	8192
bin	2.5632e-06	4096
bin	2.6344e-06	4096
bin	2.7056e-06	2048
bin	2.7768e-06	8192
bin	2.848e-06	2048
bin	2.9192e-06	0
bin	2.9904e-06	0
bin	3.0616e-06	5120
bin	3.1328e-06	2048
bin	3.204e-06	1024
bin	3.2752e-06	7168
bin	3.3464e-06	3072
bin	3.4176e-06	0
bin	3.4888e-06	0
bin	3.56e-06	4096
bin	3.6312e-06	2048
bin	3.7024e-06	3072
bin	3.7736e-06	0
bin	3.8448e-06	9216
bin	3.916e-06	3072
bin	3.9872e-06	3072
bin	4.0584e-06	8192
bin	4.1296e-06	0
bin	4.2008e-06	2048
bin	4.272e-06	2048
bin	4.3432e-06	8192
bin	4.4144e-06	4096
bin	4.4856e-06	3072
bin	4.5568e-06	2048
bin	4.628e-06	5120
bin	4.6992e-06	1024
bin	4.7704e-06	1024
bin	4.8416e-06	5120
bin	4.9128e-06	2048
bin	4.984e-06	1024
bin	5.0552e-06	5120
bin	5.1264e-06	5120
bin	5.1976e-06	2048
bin	5.2688e-06	1024
bin	5.34e-06	3072
bin	5.4112e-06	5120
bin	5.4824e-06	5120
bin	5.5536e-06	2048
bin	5.6248e-06	5120
bin	5.696e-06	3072
bin	5.7672e-06	2048
bin	5.8384e-06	3072
bin	5.9096e-06	6144
bin	5.9808e-06	2048
bin	6.052e-06	4096
bin	6.1232e-06	1024
bin	6.1944e-06	4096
bin	6.2656e-06	2048
bin	6.3368e-06	2048
bin	6.408e-06	5120
bin	6.4792e-06	3072
bin	6.5504e-06	0
bin	6.6216e-06	2048
bin	6.6928e-06	5120
bin	6.764e-06	512
bin	6.8352e-06	512
bin	6.9064e-06	2560
bin	6.9776e-06	4096
bin	7.0488e-06	0
bin	7.12e-06	1024
bin	7.1912e-06	5632
bin	7.2624e-06	1024
bin	7.3336e-06	1536
bin	7.4048e-06	4608
bin	7.476e-06	7680
bin	7.5472e-06	1024
bin	7.6184e-06	2560
bin	7.6896e-06	3584
bin	7.7608e-06	7680
bin	7.832e-06	3072
bin	7.9032e-06	2048
bin	7.9744e-06	7168
bin	8.0456e-06	3072
bin	8.1168e-06	1280
bin	8.188e-06	4096
bin	8.2592e-06	1024
bin	8.3304e-06	2304
bin	8.4016e-06	768
bin	8.4728e-06	2304
bin	8.544e-06	7680
bin	8.6152e-06	1280
bin	8.6864e-06	1280
bin	8.7576e-06	5888
bin	8.8288e-06	1792
bin	8.9e-06	3840
bin	8.9712e-06	3328
bin	9.0424e-06	2304
bin	9.1136e-06	2816
bin	9.1848e-06	768
bin	9.256e-06	4352
bin	9.3272e-06	5376
bin	9.3984e-06	1792
bin	9.4696e-06	512
bin	9.5408e-06	4864
bin	9.612e-06	1280
bin	9.6832e-06	1792
bin	9.7544e-06	2304
bin	9.8256e-06	2560
bin	9.8968e-06	4352
bin	9.968e-06	3584
bin	1.00392e-05	2304
bin	1.01104e-05	2048
bin	1.01816e-05	3072
bin	1.02528e-05	2560
bin	1.0324e-05	1664
bin	1.03952e-05	2816
bin	1.04664e-05	2304
bin	1.05376e-05	2816
bin	1.06088e-05	2432
bin	1.068e-05	6016
bin	1.07512e-05	3712
bin	1.08224e-05	3200
bin	1.08936e-05	3456
bin	1.09648e-05	3968
bin	1.1036e-05	3840
bin	1.11072e-05	1920
bin	1.11784e-05	4992
bin	1.12496e-05	5248
bin	1.13208e-05	4864
bin	1.1392e-05	4480
bin	1.14632e-05	4096
bin	1.15344e-05	6656
bin	1.16056e-05	3712
bin	1.16768e-05	4608
bin	1.1748e-05	2944
bin	1.18192e-05	5632
bin	1.18904e-05	5248
bin	1.19616e-05	4608
bin	1.20328e-05	6016
bin	1.2104e-05	4096
bin	1.21752e-05	7296
bin	1.22464e-05	3840
bin	1.23176e-05	3456
bin	1.23888e-05	2176
bin	1.246e-05	4480
bin	1.25312e-05	5376
bin	1.26024e-05	5632
bin	1.26736e-05	2688
bin	1.27448e-05	5504
bin	1.2816e-05	2816
bin	1.28872e-05	5248
bin	1.29584e-05	4480
bin	1.30296e-05	4992
bin	1.31008e-05	4480
bin	1.3172e-05	6784
bin	1.32432e-05	6656
bin	1.33144e-05	5760
bin	1.33856e-05	4864
bin	1.34568e-05	4224
bin	1.3528e-05	1536
bin	1.35992e-05	4480
bin	1.36704e-05	4608
bin	1.37416e-05	5760
bin	1.38128e-05	5248
bin	1.3884e-05	3840
bin	1.39552e-05	4224
bin	1.40264e-05	2176
bin	1.40976e-05	6144
bin	1.41688e-05	3968
bin	1.424e-05	4352
bin	1.43112e-05	2944
bin	1.43824e-05	5120
bin	1.44536e-05	4608
bin	1.45248e-05	9856
bin	1.4596e-05	1536
bin	1.46672e-05	3072
bin	1.47384e-05	3200
bin	1.48096e-05	7296
bin	1.48808e-05	3808
bin	1.4952e-05	9664
bin	1.50232e-05	6592
bin	1.50944e-05	4032
bin	1.51656e-05	5568
bin	1.52368e-05	4096
bin	1.5308e-05	4576
bin	1.53792e-05	3808
bin	1.54504e-05	2272
bin	1.55216e-05	3904
bin	1.55928e-05	4960
bin	1.5664e-05	5536
bin	1.57352e-05	3808
bin	1.58064e-05	3968
bin	1.58776e-05	5216
bin	1.59488e-05	3456
bin	1.602e-05	5344
bin	1.60912e-05	7072
bin	1.61624e-05	3712
bin	1.62336e-05	5600
bin	1.63048e-05	3360
bin	1.6376e-05	7616
bin	1.64472e-05	3744
bin	1.65184e-05	3328
bin	1.65896e-05	5440
bin	1.66608e-05	6912
bin	1.6732e-05	4928
bin	1.68032e-05	5792
bin	1.68744e-05	4896
bin	1.69456e-05	2880
bin	1.70168e-05	3360
bin	1.7088e-05	4288
bin	1.71592e-05	4384
bin	1.72304e-05	2784
bin	1.73016e-05	6144
bin	1.73728e-05	6208
bin	1.7444e-05	5152
bin	1.75152e-05	3248
bin	1.75864e-05	4256
bin	1.76576e-05	4944
bin	1.77288e-05	4768
bin	1.78e-05	5104
bin	1.78712e-05	3728
bin	1.79424e-05	5984
bin	1.80136e-05	6464
bin	1.80848e-05	7488
bin	1.8156e-05	4112
bin	1.82272e-05	3712
bin	1.82984e-05	3168
bin	1.83696e-05	6128
bin	1.84408e-05	6656
bin	1.8512e-05	4784
bin	1.85832e-05	5904
bin	1.86544e-05	2176
bin	1.87256e-05	2080
bin	1.87968e-05	2608
bin	1.8868e-05	4128
bin	1.89392e-05	3168
bin	1.90104e-05	2480
bin	1.90816e-05	2752
bin	1.91528e-05	3952
bin	1.9224e-05	4176
bin	1.92952e-05	4240
bin	1.93664e-05	2080
bin	1.94376e-05	3504
bin	1.95088e-05	2480
bin	1.958e-05	2960
bin	1.96512e-05	5008
bin	1.97224e-05	3696
bin	1.97936e-05	4304
bin	1.98648e-05	2000
bin	1.9936e-05	2544
bin	2.00072e-05	5456
bin	2.00784e-05	2480
bin	2.01496e-05	3328
bin	2.02208e-05	2160
bin	2.0292e-05	5056
bin	2.03632e-05	2352
bin	2.04344e-05	1456
bin	2.05056e-05	1888
bin	2.05768e-05	1904
bin	2.0648e-05	1296
bin	2.07192e-05	2704
bin	2.07904e-05	3184
bin	2.08616e-05	1488
bin	2.09328e-05	1424
bin	2.1004e-05	1600
bin	2.10752e-05	1040
bin	2.11464e-05	1936
bin	2.12176e-05	1224
bin	2.12888e-05	2704
bin	2.136e-05	1192
bin	2.14312e-05	752
bin	2.15024e-05	1064
bin	2.15736e-05	2448
bin	2.16448e-05	1352
bin	2.1716e-05	1392
bin	2.17872e-05	1840
bin	2.18584e-05	720
bin	2.19296e-05	1936
bin	2.20008e-05	3360
bin	2.2072e-05	1704
bin	2.21432e-05	712
bin	2.22144e-05	1744
bin	2.22856e-05	1552
bin	2.23568e-05	1784
bin	2.2428e-05	2328
bin	2.24992e-05	1768
bin	2.25704e-05	2056
bin	2.26416e-05	1872
bin	2.27128e-05	2720
bin	2.2784e-05	1680
bin	2.28552e-05	2104
bin	2.29264e-05	1784
bin	2.29976e-05	1880
bin	2.30688e-05	3416
bin	2.314e-05	1824
bin	2.32112e-05	2456
bin	2.32824e-05	2808
bin	2.33536e-05	2992
bin	2.34248e-05	2680
bin	2.3496e-05	3400
bin	2.35672e-05	2352
bin	2.36384e-05	3320
bin	2.37096e-05	3264
bin	2.37808e-05	2744
bin	2.3852e-05	3696
bin	2.39232e-05	4216
bin	2.39944e-05	2792
bin	2.40656e-05	3800
bin	2.41368e-05	3080
bin	2.4208e-05	3736
bin	2.42792e-05	3904
bin	2.43504e-05	5552
bin	2.44216e-05	3456
bin	2.44928e-05	4240
bin	2.4564e-05	4448
bin	2.46352e-05	4000
bin	2.47064e-05	5800
bin	2.47776e-05	3808
bin	2.48488e-05	5144
bin	2.492e-05	3104
bin	2.49912e-05	5016
bin	2.50624e-05	4016
bin	2.51336e-05	4288
bin	2.52048e-05	3576
bin	2.5276e-05	4216
bin	2.53472e-05	4424
bin	2.54184e-05	3992
bin	2.54896e-05	4864
bin	2.55608e-05	3912
bin	2.5632e-05	4448
bin	2.57032e-05	4216
bin	2.57744e-05	4672
bin	2.58456e-05	4864
bin	2.59168e-05	4032
bin	2.5988e-05	4568
bin	2.60592e-05	4064
bin	2.61304e-05	4152
bin	2.62016e-05	3832
bin	2.62728e-05	4896
bin	2.6344e-05	3768
bin	2.64152e-05	5000
bin	2.64864e-05	4440
bin	2.65576e-05	4600
bin	2.66288e-05	3944
bin	2.67e-05	4392
bin	2.67712e-05	5104
bin	2.68424e-05	4552
bin	2.69136e-05	3456
bin	2.69848e-05	5216
bin	2.7056e-05	4064
bin	2.71272e-05	4328
bin	2.71984e-05	4696
bin	2.72696e-05	4184
bin	2.73408e-05	4288
bin	2.7412e-05	4720
bin	2.74832e-05	5128
bin	2.75544e-05	4456
bin	2.76256e-05	5552
bin	2.76968e-05	4912
bin	2.7768e-05	4976
bin	2.78392e-05	4560
bin	2.79104e-05	4608
bin	2.79816e-05	4200
bin	2.80528e-05	3872
bin	2.8124e-05	4296
bin	2.81952e-05	4416
bin	2.82664e-05	4416
bin	2.83376e-05	4416
bin	2.84088e-05	3432
bin	2.848e-05	4424
bin	2.85512e-05	3864
bin	2.86224e-05	2992
bin	2.86936e-05	3352
bin	2.87648e-05	4888
bin	2.8836e-05	3960
bin	2.89072e-05	3640
bin	2.89784e-05	3624
bin	2.90496e-05	3648
bin	2.91208e-05	3792
bin	2.9192e-05	4336
bin	2.92632e-05	3752
bin	2.93344e-05	4720
bin	2.94056e-05	3032
bin	2.94768e-05	3400
bin	2.9548e-05	3616
bin	2.96192e-05	3176
bin	2.96904e-05	3888
bin	2.97616e-05	3288
bin	2.98328e-05	3272
bin	2.9904e-05	3328
bin	2.99752e-05	3864
bin	3.00464e-05	3752
bin	3.01176e-05	2800
bin	3.01888e-05	3400
bin	3.026e-05	3624
bin	3.03312e-05	3008
bin	3.04024e-05	3432
bin	3.04736e-05	4200
bin	3.05448e-05	3472
bin	3.0616e-05	3424
bin	3.06872e-05	3712
bin	3.07584e-05	3560
bin	3.08296e-05	3072
bin	3.09008e-05	3384
bin	3.0972e-05	3040
bin	3.10432e-05	3472
bin	3.11144e-05	3328
bin	3.11856e-05	3024
bin	3.12568e-05	3384
bin	3.1328e-05	3888
bin	3.13992e-05	3712
bin	3.14704e-05	2880
bin	3.15416e-05	2912
bin	3.16128e-05	2840
bin	3.1684e-05	2784
bin	3.17552e-05	2760
bin	3.18264e-05	3112
bin	3.18976e-05	3328
bin	3.19688e-05	2672
bin	3.204e-05	2496
bin	3.21112e-05	2840
bin	3.21824e-05	3488
bin	3.22536e-05	3104
bin	3.23248e-05	2912
bin	3.2396e-05	3568
bin	3.24672e-05	3096
bin	3.25384e-05	3672
bin	3.26096e-05	2912
bin	3.26808e-05	2816
bin	3.2752e-05	3296
bin	3.28232e-05	2824
bin	3.28944e-05	2856
bin	3.29656e-05	3000
bin	3.30368e-05	3848
bin	3.3108e-05	3112
bin	3.31792e-05	2600
bin	3.32504e-05	2896
bin	3.33216e-05	2288
bin	3.33928e-05	3056
bin	3.3464e-05	3136
bin	3.35352e-05	3656
bin	3.36064e-05	2680
bin	3.36776e-05	2824
bin	3.37488e-05	2592
bin	3.382e-05	3040
bin	3.38912e-05	3360
bin	3.39624e-05	3360
bin	3.40336e-05	3360
bin	3.41048e-05	3000
bin	3.4176e-05	3824
bin	3.42472e-05	3320
bin	3.43184e-05	3520
bin	3.43896e-05	3360
bin	3.44608e-05	3056
bin	3.4532e-05	3472
bin	3.46032e-05	3056
bin	3.46744e-05	2864
bin	3.47456e-05	3040
bin	3.48168e-05	3512
bin	3.4888e-05	3016
bin	3.49592e-05	2272
bin	3.50304e-05	2456
bin	3.51016e-05	2688
bin	3.51728e-05	3496
bin	3.5244e-05	2952
bin	3.53152e-05	2832
bin	3.53864e-05	3200
bin	3.54576e-05	2912
bin	3.55288e-05	3368
bin	3.56e-05	4531480
statistic Torus3d_bub.timer 	"Life Times"
field count 6291456
field mean 0.00039853346425573
field stddev 0.00020171967642349
field sum 2507.3557548925
field sqrsum 1.2552696874901
field min 7.33333333e-07
field max 0.000858822665164
bin	-INF	0
bin	0	4096
bin	8.544e-07	12288
bin	1.7088e-06	18432
bin	2.5632e-06	18432
bin	3.4176e-06	16384
bin	4.272e-06	16384
bin	5.1264e-06	18432
bin	5.9808e-06	14336
bin	6.8352e-06	12288
bin	7.6896e-06	10240
bin	8.544e-06	14336
bin	9.3984e-06	2048
bin	1.02528e-05	0
bin	1.11072e-05	2048
bin	1.19616e-05	0
bin	1.2816e-05	0
bin	1.36704e-05	2048
bin	1.45248e-05	8192
bin	1.53792e-05	4096
bin	1.62336e-05	2048
bin	1.7088e-05	4096
bin	1.79424e-05	0
bin	1.87968e-05	0
bin	1.96512e-05	0
bin	2.05056e-05	2048
bin	2.136e-05	4096
bin	2.22144e-05	4096
bin	2.30688e-05	4096
bin	2.39232e-05	2048
bin	2.47776e-05	4096
bin	2.5632e-05	2048
bin	2.64864e-05	6144
bin	2.73408e-05	2048
bin	2.81952e-05	4096
bin	2.90496e-05	6144
bin	2.9904e-05	6144
bin	3.07584e-05	0
bin	3.16128e-05	2048
bin	3.24672e-05	12288
bin	3.33216e-05	4096
bin	3.4176e-05	4096
bin	3.50304e-05	6144
bin	3.58848e-05	10240
bin	3.67392e-05	11264
bin	3.75936e-05	3072
bin	3.8448e-05	2048
bin	3.93024e-05	9216
bin	4.01568e-05	4096
bin	4.10112e-05	2048
bin	4.18656e-05	3072
bin	4.272e-05	3072
bin	4.35744e-05	3072
bin	4.44288e-05	3072
bin	4.52832e-05	4096
bin	4.61376e-05	3072
bin	4.6992e-05	2048
bin	4.78464e-05	3072
bin	4.87008e-05	5120
bin	4.95552e-05	4096
bin	5.04096e-05	2048
bin	5.1264e-05	6144
bin	5.21184e-05	7168
bin	5.29728e-05	5120
bin	5.38272e-05	4096
bin	5.46816e-05	3072
bin	5.5536e-05	6144
bin	5.63904e-05	4096
bin	5.72448e-05	3072
bin	5.80992e-05	2048
bin	5.89536e-05	4096
bin	5.9808e-05	1024
bin	6.06624e-05	5120
bin	6.15168e-05	1024
bin	6.23712e-05	4096
bin	6.32256e-05	4096
bin	6.408e-05	6144
bin	6.49344e-05	3072
bin	6.57888e-05	4096
bin	6.66432e-05	5120
bin	6.74976e-05	5120
bin	6.8352e-05	3072
bin	6.92064e-05	6144
bin	7.00608e-05	5120
bin	7.09152e-05	3072
bin	7.17696e-05	6144
bin	7.2624e-05	5120
bin	7.34784e-05	5120
bin	7.43328e-05	1024
bin	7.51872e-05	4096
bin	7.60416e-05	3072
bin	7.6896e-05	3072
bin	7.77504e-05	5120
bin	7.86048e-05	4096
bin	7.94592e-05	4608
bin	8.03136e-05	3072
bin	8.1168e-05	3072
bin	8.20224e-05	1536
bin	8.28768e-05	6656
bin	8.37312e-05	0
bin	8.45856e-05	3072
bin	8.544e-05	2560
bin	8.62944e-05	3584
bin	8.71488e-05	3072
bin	8.80032e-05	3072
bin	8.88576e-05	3584
bin	8.9712e-05	3584
bin	9.05664e-05	4096
bin	9.14208e-05	4096
bin	9.22752e-05	8192
bin	9.31296e-05	7680
bin	9.3984e-05	8192
bin	9.48384e-05	7680
bin	9.56928e-05	5632
bin	9.65472e-05	3584
bin	9.74016e-05	5120
bin	9.8256e-05	3584
bin	9.91104e-05	3584
bin	9.99648e-05	3072
bin	0.0001008192	4096
bin	0.0001016736	8192
bin	0.000102528	7168
bin	0.0001033824	10752
bin	0.0001042368	9216
bin	0.0001050912	10496
bin	0.0001059456	8960
bin	0.0001068	9984
bin	0.0001076544	10496
bin	0.0001085088	9984
bin	0.0001093632	9216
bin	0.0001102176	10496
bin	0.000111072	8960
bin	0.0001119264	6656
bin	0.0001127808	12800
bin	0.0001136352	6912
bin	0.0001144896	8960
bin	0.000115344	7936
bin	0.0001161984	8192
bin	0.0001170528	6400
bin	0.0001179072	9472
bin	0.0001187616	6912
bin	0.000119616	8960
bin	0.0001204704	7680
bin	0.0001213248	8448
bin	0.0001221792	6144
bin	0.0001230336	7424
bin	0.000123888	6912
bin	0.0001247424	5376
bin	0.0001255968	3840
bin	0.0001264512	5376
bin	0.0001273056	4352
bin	0.00012816	4352
bin	0.0001290144	6912
bin	0.0001298688	5888
bin	0.0001307232	7424
bin	0.0001315776	8960
bin	0.000132432	7936
bin	0.0001332864	14848
bin	0.0001341408	9216
bin	0.0001349952	6144
bin	0.0001358496	6912
bin	0.000136704	9472
bin	0.0001375584	9728
bin	0.0001384128	6016
bin	0.0001392672	7552
bin	0.0001401216	7424
bin	0.000140976	8832
bin	0.0001418304	8192
bin	0.0001426848	9344
bin	0.0001435392	7168
bin	0.0001443936	7040
bin	0.000145248	4992
bin	0.0001461024	5504
bin	0.0001469568	6912
bin	0.0001478112	2688
bin	0.0001486656	3584
bin	0.00014952	6656
bin	0.0001503744	6144
bin	0.0001512288	2560
bin	0.0001520832	4736
bin	0.0001529376	6144
bin	0.000153792	6272
bin	0.0001546464	4608
bin	0.0001555008	3456
bin	0.0001563552	7552
bin	0.0001572096	6144
bin	0.000158064	8192
bin	0.0001589184	5760
bin	0.0001597728	4352
bin	0.0001606272	5376
bin	0.0001614816	3200
bin	0.000162336	4608
bin	0.0001631904	4736
bin	0.0001640448	4736
bin	0.0001648992	4480
bin	0.0001657536	3840
bin	0.000166608	6272
bin	0.0001674624	5888
bin	0.0001683168	5120
bin	0.0001691712	4992
bin	0.0001700256	3840
bin	0.00017088	7424
bin	0.0001717344	4096
bin	0.0001725888	5376
bin	0.0001734432	5248
bin	0.0001742976	5504
bin	0.000175152	3840
bin	0.0001760064	5120
bin	0.0001768608	4096
bin	0.0001777152	4352
bin	0.0001785696	4480
bin	0.000179424	4480
bin	0.0001802784	4672
bin	0.0001811328	3456
bin	0.0001819872	5248
bin	0.0001828416	3584
bin	0.000183696	6464
bin	0.0001845504	4032
bin	0.0001854048	2432
bin	0.0001862592	3584
bin	0.0001871136	3584
bin	0.000187968	4096
bin	0.0001888224	2432
bin	0.0001896768	4736
bin	0.0001905312	3328
bin	0.0001913856	3392
bin	0.00019224	3456
bin	0.0001930944	4736
bin	0.0001939488	5568
bin	0.0001948032	4928
bin	0.0001956576	4928
bin	0.000196512	5120
bin	0.0001973664	4800
bin	0.0001982208	4032
bin	0.0001990752	4224
bin	0.0001999296	4160
bin	0.000200784	4800
bin	0.0002016384	3840
bin	0.0002024928	5248
bin	0.0002033472	5504
bin	0.0002042016	6784
bin	0.000205056	6624
bin	0.0002059104	5856
bin	0.0002067648	6400
bin	0.0002076192	6368
bin	0.0002084736	6528
bin	0.000209328	6560
bin	0.0002101824	7584
bin	0.0002110368	7584
bin	0.0002118912	6976
bin	0.0002127456	5472
bin	0.0002136	8928
bin	0.0002144544	6848
bin	0.0002153088	5952
bin	0.0002161632	7232
bin	0.0002170176	7328
bin	0.000217872	6496
bin	0.0002187264	6880
bin	0.0002195808	8064
bin	0.0002204352	8608
bin	0.0002212896	8160
bin	0.000222144	6432
bin	0.0002229984	8032
bin	0.0002238528	7584
bin	0.0002247072	7424
bin	0.0002255616	6816
bin	0.000226416	6784
bin	0.0002272704	5536
bin	0.0002281248	6112
bin	0.0002289792	5824
bin	0.0002298336	6720
bin	0.000230688	7808
bin	0.0002315424	6400
bin	0.0002323968	8000
bin	0.0002332512	7552
bin	0.0002341056	9344
bin	0.00023496	9120
bin	0.0002358144	7584
bin	0.0002366688	7296
bin	0.0002375232	7840
bin	0.0002383776	8144
bin	0.000239232	8352
bin	0.0002400864	8944
bin	0.0002409408	7488
bin	0.0002417952	8368
bin	0.0002426496	7360
bin	0.000243504	8832
bin	0.0002443584	7760
bin	0.0002452128	7360
bin	0.0002460672	6976
bin	0.0002469216	6800
bin	0.000247776	6960
bin	0.0002486304	6848
bin	0.0002494848	6640
bin	0.0002503392	7136
bin	0.0002511936	7696
bin	0.000252048	5680
bin	0.0002529024	4960
bin	0.0002537568	6576
bin	0.0002546112	6192
bin	0.0002554656	5648
bin	0.00025632	5664
bin	0.0002571744	5520
bin	0.0002580288	6304
bin	0.0002588832	6144
bin	0.0002597376	7248
bin	0.000260592	7088
bin	0.0002614464	5824
bin	0.0002623008	4432
bin	0.0002631552	5680
bin	0.0002640096	6832
bin	0.000264864	6896
bin	0.0002657184	5120
bin	0.0002665728	5120
bin	0.0002674272	6256
bin	0.0002682816	6480
bin	0.000269136	5872
bin	0.0002699904	6048
bin	0.0002708448	5280
bin	0.0002716992	5856
bin	0.0002725536	5104
bin	0.000273408	5600
bin	0.0002742624	5824
bin	0.0002751168	5664
bin	0.0002759712	5008
bin	0.0002768256	4496
bin	0.00027768	6176
bin	0.0002785344	3696
bin	0.0002793888	4736
bin	0.0002802432	4720
bin	0.0002810976	5376
bin	0.000281952	4568
bin	0.0002828064	3928
bin	0.0002836608	5400
bin	0.0002845152	5152
bin	0.0002853696	5840
bin	0.000286224	3744
bin	0.0002870784	4392
bin	0.0002879328	4240
bin	0.0002887872	4728
bin	0.0002896416	4488
bin	0.000290496	4448
bin	0.0002913504	4656
bin	0.0002922048	3360
bin	0.0002930592	4160
bin	0.0002939136	4104
bin	0.000294768	5096
bin	0.0002956224	4648
bin	0.0002964768	4392
bin	0.0002973312	4968
bin	0.0002981856	4544
bin	0.00029904	4064
bin	0.0002998944	4616
bin	0.0003007488	4816
bin	0.0003016032	4560
bin	0.0003024576	3896
bin	0.000303312	4376
bin	0.0003041664	5240
bin	0.0003050208	5336
bin	0.0003058752	5128
bin	0.0003067296	4984
bin	0.000307584	5448
bin	0.0003084384	4448
bin	0.0003092928	5344
bin	0.0003101472	5744
bin	0.0003110016	6504
bin	0.000311856	5456
bin	0.0003127104	6048
bin	0.0003135648	6112
bin	0.0003144192	6392
bin	0.0003152736	6448
bin	0.000316128	5024
bin	0.0003169824	5960
bin	0.0003178368	5864
bin	0.0003186912	5992
bin	0.0003195456	6104
bin	0.0003204	7688
bin	0.0003212544	6888
bin	0.0003221088	7728
bin	0.0003229632	7536
bin	0.0003238176	6704
bin	0.000324672	6544
bin	0.0003255264	7256
bin	0.0003263808	7416
bin	0.0003272352	7704
bin	0.0003280896	6952
bin	0.000328944	7320
bin	0.0003297984	7568
bin	0.0003306528	7784
bin	0.0003315072	8352
bin	0.0003323616	7384
bin	0.000333216	8088
bin	0.0003340704	7552
bin	0.0003349248	8296
bin	0.0003357792	8976
bin	0.0003366336	8424
bin	0.000337488	8432
bin	0.0003383424	8464
bin	0.0003391968	9608
bin	0.0003400512	8584
bin	0.0003409056	9488
bin	0.00034176	8328
bin	0.0003426144	8688
bin	0.0003434688	9424
bin	0.0003443232	8808
bin	0.0003451776	9024
bin	0.000346032	7784
bin	0.0003468864	8672
bin	0.0003477408	9000
bin	0.0003485952	8912
bin	0.0003494496	8704
bin	0.000350304	8736
bin	0.0003511584	8392
bin	0.0003520128	8704
bin	0.0003528672	8592
bin	0.0003537216	7552
bin	0.000354576	7440
bin	0.0003554304	8272
bin	0.0003562848	7768
bin	0.0003571392	7880
bin	0.0003579936	7104
bin	0.000358848	8040
bin	0.0003597024	7848
bin	0.0003605568	8352
bin	0.0003614112	8440
bin	0.0003622656	7112
bin	0.00036312	7520
bin	0.0003639744	7488
bin	0.0003648288	8728
bin	0.0003656832	8680
bin	0.0003665376	7400
bin	0.000367392	7504
bin	0.0003682464	7584
bin	0.0003691008	8824
bin	0.0003699552	8232
bin	0.0003708096	8136
bin	0.000371664	7512
bin	0.0003725184	7352
bin	0.0003733728	8264
bin	0.0003742272	7720
bin	0.0003750816	7992
bin	0.000375936	7448
bin	0.0003767904	7624
bin	0.0003776448	7936
bin	0.0003784992	7696
bin	0.0003793536	8000
bin	0.000380208	7288
bin	0.0003810624	7096
bin	0.0003819168	7536
bin	0.0003827712	7544
bin	0.0003836256	7048
bin	0.00038448	7384
bin	0.0003853344	7992
bin	0.0003861888	7960
bin	0.0003870432	7496
bin	0.0003878976	6976
bin	0.000388752	8088
bin	0.0003896064	8128
bin	0.0003904608	8248
bin	0.0003913152	8184
bin	0.0003921696	8456
bin	0.000393024	8016
bin	0.0003938784	7592
bin	0.0003947328	8232
bin	0.0003955872	7880
bin	0.0003964416	7624
bin	0.000397296	7176
bin	0.0003981504	7392
bin	0.0003990048	8528
bin	0.0003998592	8016
bin	0.0004007136	7600
bin	0.000401568	7752
bin	0.0004024224	7584
bin	0.0004032768	7336
bin	0.0004041312	7232
bin	0.0004049856	7528
bin	0.00040584	6840
bin	0.0004066944	7088
bin	0.0004075488	7744
bin	0.0004084032	7736
bin	0.0004092576	7952
bin	0.000410112	7896
bin	0.0004109664	7584
bin	0.0004118208	7648
bin	0.0004126752	7752
bin	0.0004135296	7968
bin	0.000414384	8016
bin	0.0004152384	8360
bin	0.0004160928	8248
bin	0.0004169472	8720
bin	0.0004178016	8440
bin	0.000418656	7984
bin	0.0004195104	7784
bin	0.0004203648	8064
bin	0.0004212192	7800
bin	0.0004220736	7696
bin	0.000422928	8328
bin	0.0004237824	8224
bin	0.0004246368	8544
bin	0.0004254912	8416
bin	0.0004263456	8752
bin	0.0004272	3146104
