version 2
run Butterfly-141-20120709-14:02:56-24185
attr alg 1
attr buf 8
attr configname Butterfly
attr datetime 20120709-14:02:56
attr delta 2.4
attr experiment Butterfly
attr ext false
attr inifile altro.ini
attr iterationvars "$buf=8, $ext=false, $ofedge=1, $delta=2.4, $alg=1"
attr iterationvars2 "$buf=8, $ext=false, $ofedge=1, $delta=2.4, $alg=1, $repetition=0"
attr measurement "$buf=8, $ext=false, $ofedge=1, $delta=2.4, $alg=1"
attr network Torus3d_bub
attr ofedge 1
attr processid 24185
attr repetition 0
attr replication #0
attr resultdir altro-results
attr runnumber 141
attr seedset 141

scalar . 	alg 	1
scalar . 	buf 	8
scalar . 	delta 	2.4
scalar . 	ofedge 	1
scalar Torus3d_bub.timer 	#endTime 	0.000835461665384
scalar Torus3d_bub.timer 	#totalHops 	35868942
scalar Torus3d_bub.timer 	#totalPacks 	6291456
scalar Torus3d_bub.timer 	#totalDerouted 	4193079
scalar Torus3d_bub.timer 	#totalOutFlanked 	4193079
scalar Torus3d_bub.timer 	#totalCQRed 	0
scalar Torus3d_bub.timer 	#LB 	0.000786432
scalar Torus3d_bub.timer 	#ratio 	0.94131428476558
statistic Torus3d_bub.timer 	"Hop Times"
field count 6291456
field mean 4.8227071732489e-05
field stddev 5.6264818537447e-05
field sum 303.4184998138
field sqrsum 0.034550032366127
field min 5.2e-07
field max 0.000549813666046
bin	-INF	0
bin	0	0
bin	7.12e-08	0
bin	1.424e-07	0
bin	2.136e-07	0
bin	2.848e-07	0
bin	3.56e-07	0
bin	4.272e-07	0
bin	4.984e-07	4096
bin	5.696e-07	2048
bin	6.408e-07	0
bin	7.12e-07	5120
bin	7.832e-07	0
bin	8.544e-07	2048
bin	9.256e-07	2
bin	9.968e-07	7670
bin	1.068e-06	1037
bin	1.1392e-06	2061
bin	1.2104e-06	1094
bin	1.2816e-06	5672
bin	1.3528e-06	5858
bin	1.424e-06	2602
bin	1.4952e-06	9585
bin	1.5664e-06	3902
bin	1.6376e-06	8470
bin	1.7088e-06	4613
bin	1.78e-06	12231
bin	1.8512e-06	5215
bin	1.9224e-06	9407
bin	1.9936e-06	8335
bin	2.0648e-06	9697
bin	2.136e-06	9723
bin	2.2072e-06	6910
bin	2.2784e-06	13191
bin	2.3496e-06	5617
bin	2.4208e-06	9120
bin	2.492e-06	6323
bin	2.5632e-06	13571
bin	2.6344e-06	10739
bin	2.7056e-06	8372
bin	2.7768e-06	10304
bin	2.848e-06	11175
bin	2.9192e-06	6889
bin	2.9904e-06	7862
bin	3.0616e-06	13514
bin	3.1328e-06	9306
bin	3.204e-06	10848
bin	3.2752e-06	6250
bin	3.3464e-06	9753
bin	3.4176e-06	9976
bin	3.4888e-06	6363
bin	3.56e-06	5102
bin	3.6312e-06	12012
bin	3.7024e-06	9741
bin	3.7736e-06	4990
bin	3.8448e-06	14144
bin	3.916e-06	4366
bin	3.9872e-06	4309
bin	4.0584e-06	4274
bin	4.1296e-06	8565
bin	4.2008e-06	4345
bin	4.272e-06	4244
bin	4.3432e-06	5395
bin	4.4144e-06	9435
bin	4.4856e-06	4219
bin	4.5568e-06	4310
bin	4.628e-06	8360
bin	4.6992e-06	4804
bin	4.7704e-06	4739
bin	4.8416e-06	4457
bin	4.9128e-06	8447
bin	4.984e-06	4757
bin	5.0552e-06	4595
bin	5.1264e-06	4377
bin	5.1976e-06	8466
bin	5.2688e-06	4223
bin	5.34e-06	4201
bin	5.4112e-06	8387
bin	5.4824e-06	4293
bin	5.5536e-06	5009
bin	5.6248e-06	4394
bin	5.696e-06	8409
bin	5.7672e-06	4867
bin	5.8384e-06	4348
bin	5.9096e-06	4897
bin	5.9808e-06	9210
bin	6.052e-06	4791
bin	6.1232e-06	4845
bin	6.1944e-06	9066
bin	6.2656e-06	4612
bin	6.3368e-06	4530
bin	6.408e-06	4354
bin	6.4792e-06	8892
bin	6.5504e-06	4442
bin	6.6216e-06	4484
bin	6.6928e-06	4468
bin	6.764e-06	8605
bin	6.8352e-06	4664
bin	6.9064e-06	4584
bin	6.9776e-06	8629
bin	7.0488e-06	4631
bin	7.12e-06	4641
bin	7.1912e-06	4868
bin	7.2624e-06	8915
bin	7.3336e-06	4760
bin	7.4048e-06	4781
bin	7.476e-06	4848
bin	7.5472e-06	8951
bin	7.6184e-06	4831
bin	7.6896e-06	4831
bin	7.7608e-06	8995
bin	7.832e-06	4878
bin	7.9032e-06	5020
bin	7.9744e-06	4932
bin	8.0456e-06	5039
bin	8.1168e-06	5202
bin	8.188e-06	5163
bin	8.2592e-06	5232
bin	8.3304e-06	9312
bin	8.4016e-06	5181
bin	8.4728e-06	5366
bin	8.544e-06	9432
bin	8.6152e-06	5254
bin	8.6864e-06	5302
bin	8.7576e-06	5310
bin	8.8288e-06	7409
bin	8.9e-06	5511
bin	8.9712e-06	5423
bin	9.0424e-06	5596
bin	9.1136e-06	9683
bin	9.1848e-06	5655
bin	9.256e-06	5791
bin	9.3272e-06	5649
bin	9.3984e-06	5497
bin	9.4696e-06	5738
bin	9.5408e-06	5563
bin	9.612e-06	7679
bin	9.6832e-06	5697
bin	9.7544e-06	5887
bin	9.8256e-06	5798
bin	9.8968e-06	10116
bin	9.968e-06	5918
bin	1.00392e-05	5818
bin	1.01104e-05	7977
bin	1.01816e-05	5671
bin	1.02528e-05	5857
bin	1.0324e-05	5872
bin	1.03952e-05	5764
bin	1.04664e-05	5862
bin	1.05376e-05	5949
bin	1.06088e-05	5844
bin	1.068e-05	7976
bin	1.07512e-05	6043
bin	1.08224e-05	5915
bin	1.08936e-05	10025
bin	1.09648e-05	5900
bin	1.1036e-05	6141
bin	1.11072e-05	5798
bin	1.11784e-05	8055
bin	1.12496e-05	6091
bin	1.13208e-05	6194
bin	1.1392e-05	5888
bin	1.14632e-05	8219
bin	1.15344e-05	6128
bin	1.16056e-05	6057
bin	1.16768e-05	8251
bin	1.1748e-05	6008
bin	1.18192e-05	6309
bin	1.18904e-05	6165
bin	1.19616e-05	8266
bin	1.20328e-05	6102
bin	1.2104e-05	6313
bin	1.21752e-05	6190
bin	1.22464e-05	8477
bin	1.23176e-05	6546
bin	1.23888e-05	6454
bin	1.246e-05	9679
bin	1.25312e-05	6386
bin	1.26024e-05	6691
bin	1.26736e-05	6463
bin	1.27448e-05	6644
bin	1.2816e-05	6441
bin	1.28872e-05	6625
bin	1.29584e-05	6451
bin	1.30296e-05	9805
bin	1.31008e-05	6745
bin	1.3172e-05	6647
bin	1.32432e-05	7812
bin	1.33144e-05	6484
bin	1.33856e-05	6846
bin	1.34568e-05	6691
bin	1.3528e-05	6647
bin	1.35992e-05	6815
bin	1.36704e-05	6825
bin	1.37416e-05	6617
bin	1.38128e-05	6912
bin	1.3884e-05	6887
bin	1.39552e-05	6896
bin	1.40264e-05	6732
bin	1.40976e-05	6880
bin	1.41688e-05	7237
bin	1.424e-05	6839
bin	1.43112e-05	6877
bin	1.43824e-05	7223
bin	1.44536e-05	7037
bin	1.45248e-05	6955
bin	1.4596e-05	7045
bin	1.46672e-05	7261
bin	1.47384e-05	7182
bin	1.48096e-05	7100
bin	1.48808e-05	7075
bin	1.4952e-05	7331
bin	1.50232e-05	7153
bin	1.50944e-05	7305
bin	1.51656e-05	7269
bin	1.52368e-05	7310
bin	1.5308e-05	7428
bin	1.53792e-05	7514
bin	1.54504e-05	7478
bin	1.55216e-05	7479
bin	1.55928e-05	7605
bin	1.5664e-05	7681
bin	1.57352e-05	7474
bin	1.58064e-05	7299
bin	1.58776e-05	7573
bin	1.59488e-05	7565
bin	1.602e-05	7589
bin	1.60912e-05	7546
bin	1.61624e-05	7938
bin	1.62336e-05	7577
bin	1.63048e-05	7631
bin	1.6376e-05	7637
bin	1.64472e-05	7727
bin	1.65184e-05	7708
bin	1.65896e-05	7617
bin	1.66608e-05	7494
bin	1.6732e-05	7834
bin	1.68032e-05	7710
bin	1.68744e-05	7477
bin	1.69456e-05	7632
bin	1.70168e-05	7597
bin	1.7088e-05	7644
bin	1.71592e-05	7598
bin	1.72304e-05	7592
bin	1.73016e-05	7737
bin	1.73728e-05	7477
bin	1.7444e-05	7652
bin	1.75152e-05	7754
bin	1.75864e-05	7729
bin	1.76576e-05	7534
bin	1.77288e-05	7675
bin	1.78e-05	7429
bin	1.78712e-05	7635
bin	1.79424e-05	7540
bin	1.80136e-05	7803
bin	1.80848e-05	7778
bin	1.8156e-05	7539
bin	1.82272e-05	7631
bin	1.82984e-05	7694
bin	1.83696e-05	7740
bin	1.84408e-05	7449
bin	1.8512e-05	7894
bin	1.85832e-05	7577
bin	1.86544e-05	7733
bin	1.87256e-05	7582
bin	1.87968e-05	7855
bin	1.8868e-05	7743
bin	1.89392e-05	7658
bin	1.90104e-05	7934
bin	1.90816e-05	7791
bin	1.91528e-05	7576
bin	1.9224e-05	7768
bin	1.92952e-05	7794
bin	1.93664e-05	7835
bin	1.94376e-05	7870
bin	1.95088e-05	7829
bin	1.958e-05	7962
bin	1.96512e-05	7891
bin	1.97224e-05	7819
bin	1.97936e-05	7979
bin	1.98648e-05	7922
bin	1.9936e-05	7846
bin	2.00072e-05	7827
bin	2.00784e-05	7976
bin	2.01496e-05	7869
bin	2.02208e-05	7853
bin	2.0292e-05	7634
bin	2.03632e-05	7852
bin	2.04344e-05	7653
bin	2.05056e-05	7786
bin	2.05768e-05	7749
bin	2.0648e-05	7966
bin	2.07192e-05	7863
bin	2.07904e-05	7774
bin	2.08616e-05	7985
bin	2.09328e-05	7743
bin	2.1004e-05	7782
bin	2.10752e-05	7772
bin	2.11464e-05	7997
bin	2.12176e-05	7897
bin	2.12888e-05	7855
bin	2.136e-05	7817
bin	2.14312e-05	7906
bin	2.15024e-05	7785
bin	2.15736e-05	7845
bin	2.16448e-05	7964
bin	2.1716e-05	7769
bin	2.17872e-05	7947
bin	2.18584e-05	7855
bin	2.19296e-05	8388
bin	2.20008e-05	7947
bin	2.2072e-05	7953
bin	2.21432e-05	7911
bin	2.22144e-05	8199
bin	2.22856e-05	7924
bin	2.23568e-05	7860
bin	2.2428e-05	8141
bin	2.24992e-05	7825
bin	2.25704e-05	8036
bin	2.26416e-05	7951
bin	2.27128e-05	8309
bin	2.2784e-05	7980
bin	2.28552e-05	7888
bin	2.29264e-05	8028
bin	2.29976e-05	8219
bin	2.30688e-05	8053
bin	2.314e-05	7911
bin	2.32112e-05	8291
bin	2.32824e-05	7936
bin	2.33536e-05	8077
bin	2.34248e-05	7833
bin	2.3496e-05	8102
bin	2.35672e-05	7847
bin	2.36384e-05	7986
bin	2.37096e-05	8066
bin	2.37808e-05	8014
bin	2.3852e-05	7896
bin	2.39232e-05	7786
bin	2.39944e-05	8047
bin	2.40656e-05	7793
bin	2.41368e-05	7814
bin	2.4208e-05	7718
bin	2.42792e-05	8261
bin	2.43504e-05	7710
bin	2.44216e-05	7775
bin	2.44928e-05	7736
bin	2.4564e-05	8055
bin	2.46352e-05	7896
bin	2.47064e-05	7944
bin	2.47776e-05	8211
bin	2.48488e-05	7901
bin	2.492e-05	8035
bin	2.49912e-05	7755
bin	2.50624e-05	8056
bin	2.51336e-05	7940
bin	2.52048e-05	7912
bin	2.5276e-05	7989
bin	2.53472e-05	8104
bin	2.54184e-05	7902
bin	2.54896e-05	7804
bin	2.55608e-05	8126
bin	2.5632e-05	7697
bin	2.57032e-05	7849
bin	2.57744e-05	7722
bin	2.58456e-05	8212
bin	2.59168e-05	7908
bin	2.5988e-05	7915
bin	2.60592e-05	7963
bin	2.61304e-05	8131
bin	2.62016e-05	7930
bin	2.62728e-05	7891
bin	2.6344e-05	8133
bin	2.64152e-05	7778
bin	2.64864e-05	7912
bin	2.65576e-05	7844
bin	2.66288e-05	8232
bin	2.67e-05	7785
bin	2.67712e-05	7794
bin	2.68424e-05	7797
bin	2.69136e-05	7994
bin	2.69848e-05	7897
bin	2.7056e-05	7760
bin	2.71272e-05	8095
bin	2.71984e-05	7972
bin	2.72696e-05	7946
bin	2.73408e-05	7716
bin	2.7412e-05	8186
bin	2.74832e-05	7690
bin	2.75544e-05	7700
bin	2.76256e-05	7822
bin	2.76968e-05	7947
bin	2.7768e-05	7677
bin	2.78392e-05	7610
bin	2.79104e-05	8094
bin	2.79816e-05	7703
bin	2.80528e-05	7752
bin	2.8124e-05	7608
bin	2.81952e-05	7941
bin	2.82664e-05	7748
bin	2.83376e-05	7668
bin	2.84088e-05	7757
bin	2.848e-05	7995
bin	2.85512e-05	7794
bin	2.86224e-05	7706
bin	2.86936e-05	7903
bin	2.87648e-05	7672
bin	2.8836e-05	7626
bin	2.89072e-05	7427
bin	2.89784e-05	7759
bin	2.90496e-05	7573
bin	2.91208e-05	7619
bin	2.9192e-05	7529
bin	2.92632e-05	7768
bin	2.93344e-05	7780
bin	2.94056e-05	7530
bin	2.94768e-05	8013
bin	2.9548e-05	7625
bin	2.96192e-05	7656
bin	2.96904e-05	7518
bin	2.97616e-05	7901
bin	2.98328e-05	7538
bin	2.9904e-05	7518
bin	2.99752e-05	7521
bin	3.00464e-05	7768
bin	3.01176e-05	7629
bin	3.01888e-05	7484
bin	3.026e-05	7548
bin	3.03312e-05	7387
bin	3.04024e-05	7340
bin	3.04736e-05	7376
bin	3.05448e-05	7767
bin	3.0616e-05	7450
bin	3.06872e-05	7430
bin	3.07584e-05	7402
bin	3.08296e-05	7604
bin	3.09008e-05	7401
bin	3.0972e-05	7373
bin	3.10432e-05	7603
bin	3.11144e-05	7349
bin	3.11856e-05	7422
bin	3.12568e-05	7221
bin	3.1328e-05	7623
bin	3.13992e-05	7261
bin	3.14704e-05	7357
bin	3.15416e-05	7264
bin	3.16128e-05	7443
bin	3.1684e-05	7254
bin	3.17552e-05	7242
bin	3.18264e-05	7383
bin	3.18976e-05	7253
bin	3.19688e-05	7206
bin	3.204e-05	7064
bin	3.21112e-05	7425
bin	3.21824e-05	7110
bin	3.22536e-05	7134
bin	3.23248e-05	7124
bin	3.2396e-05	7354
bin	3.24672e-05	6985
bin	3.25384e-05	7025
bin	3.26096e-05	7247
bin	3.26808e-05	7018
bin	3.2752e-05	7205
bin	3.28232e-05	7010
bin	3.28944e-05	7153
bin	3.29656e-05	7122
bin	3.30368e-05	7107
bin	3.3108e-05	7046
bin	3.31792e-05	7236
bin	3.32504e-05	6877
bin	3.33216e-05	6949
bin	3.33928e-05	7058
bin	3.3464e-05	6868
bin	3.35352e-05	7115
bin	3.36064e-05	6732
bin	3.36776e-05	7133
bin	3.37488e-05	6927
bin	3.382e-05	6905
bin	3.38912e-05	7039
bin	3.39624e-05	7244
bin	3.40336e-05	6960
bin	3.41048e-05	6897
bin	3.4176e-05	6910
bin	3.42472e-05	6816
bin	3.43184e-05	6717
bin	3.43896e-05	6737
bin	3.44608e-05	6960
bin	3.4532e-05	6585
bin	3.46032e-05	6586
bin	3.46744e-05	6587
bin	3.47456e-05	6828
bin	3.48168e-05	6477
bin	3.4888e-05	6575
bin	3.49592e-05	6732
bin	3.50304e-05	6531
bin	3.51016e-05	6483
bin	3.51728e-05	6427
bin	3.5244e-05	6543
bin	3.53152e-05	6386
bin	3.53864e-05	6443
bin	3.54576e-05	6427
bin	3.55288e-05	6642
bin	3.56e-05	2770092
statistic Torus3d_bub.timer 	"Life Times"
field count 6291456
field mean 0.00018841676647855
field stddev 0.00010844885557995
field sum 1185.4157959621
field sqrsum 0.29734698408707
field min 5.2e-07
field max 0.000631829999406
bin	-INF	0
bin	0	8192
bin	8.544e-07	13312
bin	1.7088e-06	16384
bin	2.5632e-06	19464
bin	3.4176e-06	21553
bin	4.272e-06	21683
bin	5.1264e-06	24818
bin	5.9808e-06	28558
bin	6.8352e-06	20811
bin	7.6896e-06	24544
bin	8.544e-06	21039
bin	9.3984e-06	19143
bin	1.02528e-05	22653
bin	1.11072e-05	25590
bin	1.19616e-05	20448
bin	1.2816e-05	20650
bin	1.36704e-05	12568
bin	1.45248e-05	11348
bin	1.53792e-05	11422
bin	1.62336e-05	9488
bin	1.7088e-05	9472
bin	1.79424e-05	9454
bin	1.87968e-05	10523
bin	1.96512e-05	11052
bin	2.05056e-05	11118
bin	2.136e-05	10406
bin	2.22144e-05	11626
bin	2.30688e-05	12135
bin	2.39232e-05	12071
bin	2.47776e-05	11241
bin	2.5632e-05	10607
bin	2.64864e-05	10406
bin	2.73408e-05	10418
bin	2.81952e-05	10393
bin	2.90496e-05	10461
bin	2.9904e-05	10134
bin	3.07584e-05	9910
bin	3.16128e-05	10294
bin	3.24672e-05	9875
bin	3.33216e-05	9816
bin	3.4176e-05	9769
bin	3.50304e-05	9678
bin	3.58848e-05	9860
bin	3.67392e-05	9914
bin	3.75936e-05	9647
bin	3.8448e-05	9791
bin	3.93024e-05	9840
bin	4.01568e-05	9357
bin	4.10112e-05	9647
bin	4.18656e-05	9596
bin	4.272e-05	9623
bin	4.35744e-05	9548
bin	4.44288e-05	9832
bin	4.52832e-05	9724
bin	4.61376e-05	9843
bin	4.6992e-05	10042
bin	4.78464e-05	10282
bin	4.87008e-05	10414
bin	4.95552e-05	10627
bin	5.04096e-05	11050
bin	5.1264e-05	10865
bin	5.21184e-05	11007
bin	5.29728e-05	11213
bin	5.38272e-05	11722
bin	5.46816e-05	11789
bin	5.5536e-05	12004
bin	5.63904e-05	12443
bin	5.72448e-05	12460
bin	5.80992e-05	12674
bin	5.89536e-05	12704
bin	5.9808e-05	13082
bin	6.06624e-05	12917
bin	6.15168e-05	13340
bin	6.23712e-05	13465
bin	6.32256e-05	13601
bin	6.408e-05	13555
bin	6.49344e-05	13145
bin	6.57888e-05	13327
bin	6.66432e-05	13012
bin	6.74976e-05	12921
bin	6.8352e-05	12811
bin	6.92064e-05	12804
bin	7.00608e-05	12654
bin	7.09152e-05	12623
bin	7.17696e-05	12545
bin	7.2624e-05	12566
bin	7.34784e-05	12477
bin	7.43328e-05	12522
bin	7.51872e-05	12653
bin	7.60416e-05	12532
bin	7.6896e-05	12433
bin	7.77504e-05	12508
bin	7.86048e-05	12807
bin	7.94592e-05	12856
bin	8.03136e-05	12923
bin	8.1168e-05	12913
bin	8.20224e-05	12800
bin	8.28768e-05	12802
bin	8.37312e-05	12741
bin	8.45856e-05	12951
bin	8.544e-05	12747
bin	8.62944e-05	12818
bin	8.71488e-05	12810
bin	8.80032e-05	12984
bin	8.88576e-05	13130
bin	8.9712e-05	13288
bin	9.05664e-05	13361
bin	9.14208e-05	13551
bin	9.22752e-05	13695
bin	9.31296e-05	13641
bin	9.3984e-05	13572
bin	9.48384e-05	13496
bin	9.56928e-05	13721
bin	9.65472e-05	13696
bin	9.74016e-05	13752
bin	9.8256e-05	13877
bin	9.91104e-05	14145
bin	9.99648e-05	14176
bin	0.0001008192	14151
bin	0.0001016736	14347
bin	0.000102528	14446
bin	0.0001033824	14368
bin	0.0001042368	14364
bin	0.0001050912	14700
bin	0.0001059456	14672
bin	0.0001068	14709
bin	0.0001076544	14689
bin	0.0001085088	14862
bin	0.0001093632	14812
bin	0.0001102176	14826
bin	0.000111072	14617
bin	0.0001119264	14722
bin	0.0001127808	14985
bin	0.0001136352	14921
bin	0.0001144896	15033
bin	0.000115344	15132
bin	0.0001161984	15137
bin	0.0001170528	15133
bin	0.0001179072	15313
bin	0.0001187616	15087
bin	0.000119616	15095
bin	0.0001204704	15111
bin	0.0001213248	15166
bin	0.0001221792	15216
bin	0.0001230336	15081
bin	0.000123888	15082
bin	0.0001247424	15418
bin	0.0001255968	15400
bin	0.0001264512	15344
bin	0.0001273056	15276
bin	0.00012816	15364
bin	0.0001290144	15540
bin	0.0001298688	15506
bin	0.0001307232	15706
bin	0.0001315776	15830
bin	0.000132432	15838
bin	0.0001332864	15698
bin	0.0001341408	15665
bin	0.0001349952	15684
bin	0.0001358496	15682
bin	0.000136704	15911
bin	0.0001375584	15997
bin	0.0001384128	16087
bin	0.0001392672	16162
bin	0.0001401216	16341
bin	0.000140976	16134
bin	0.0001418304	16260
bin	0.0001426848	16220
bin	0.0001435392	16445
bin	0.0001443936	16416
bin	0.000145248	16490
bin	0.0001461024	16403
bin	0.0001469568	16374
bin	0.0001478112	16508
bin	0.0001486656	16765
bin	0.00014952	16905
bin	0.0001503744	16955
bin	0.0001512288	16851
bin	0.0001520832	17064
bin	0.0001529376	17021
bin	0.000153792	16825
bin	0.0001546464	17067
bin	0.0001555008	17291
bin	0.0001563552	17148
bin	0.0001572096	17106
bin	0.000158064	16995
bin	0.0001589184	16939
bin	0.0001597728	17000
bin	0.0001606272	16951
bin	0.0001614816	17333
bin	0.000162336	17258
bin	0.0001631904	17290
bin	0.0001640448	17313
bin	0.0001648992	17237
bin	0.0001657536	17493
bin	0.000166608	17338
bin	0.0001674624	17445
bin	0.0001683168	17174
bin	0.0001691712	17159
bin	0.0001700256	17224
bin	0.00017088	17275
bin	0.0001717344	17205
bin	0.0001725888	17344
bin	0.0001734432	17227
bin	0.0001742976	17365
bin	0.000175152	17681
bin	0.0001760064	17682
bin	0.0001768608	17701
bin	0.0001777152	17713
bin	0.0001785696	17737
bin	0.000179424	17805
bin	0.0001802784	17770
bin	0.0001811328	17803
bin	0.0001819872	17708
bin	0.0001828416	17921
bin	0.000183696	17770
bin	0.0001845504	17984
bin	0.0001854048	17971
bin	0.0001862592	17805
bin	0.0001871136	17594
bin	0.000187968	17637
bin	0.0001888224	17656
bin	0.0001896768	17666
bin	0.0001905312	17589
bin	0.0001913856	17461
bin	0.00019224	17641
bin	0.0001930944	17284
bin	0.0001939488	17479
bin	0.0001948032	17407
bin	0.0001956576	17258
bin	0.000196512	17081
bin	0.0001973664	17051
bin	0.0001982208	17261
bin	0.0001990752	17070
bin	0.0001999296	17009
bin	0.000200784	17117
bin	0.0002016384	16907
bin	0.0002024928	16902
bin	0.0002033472	16908
bin	0.0002042016	16878
bin	0.000205056	17066
bin	0.0002059104	16885
bin	0.0002067648	16837
bin	0.0002076192	17060
bin	0.0002084736	16692
bin	0.000209328	16793
bin	0.0002101824	16838
bin	0.0002110368	16726
bin	0.0002118912	16773
bin	0.0002127456	17082
bin	0.0002136	16872
bin	0.0002144544	16448
bin	0.0002153088	16621
bin	0.0002161632	16553
bin	0.0002170176	16726
bin	0.000217872	16620
bin	0.0002187264	16646
bin	0.0002195808	16840
bin	0.0002204352	16536
bin	0.0002212896	16564
bin	0.000222144	16354
bin	0.0002229984	16148
bin	0.0002238528	16230
bin	0.0002247072	16347
bin	0.0002255616	16226
bin	0.000226416	16460
bin	0.0002272704	16248
bin	0.0002281248	15990
bin	0.0002289792	15841
bin	0.0002298336	15931
bin	0.000230688	16060
bin	0.0002315424	15823
bin	0.0002323968	15867
bin	0.0002332512	15757
bin	0.0002341056	15935
bin	0.00023496	15803
bin	0.0002358144	15815
bin	0.0002366688	15840
bin	0.0002375232	15742
bin	0.0002383776	15352
bin	0.000239232	15555
bin	0.0002400864	15204
bin	0.0002409408	15324
bin	0.0002417952	15306
bin	0.0002426496	15370
bin	0.000243504	15058
bin	0.0002443584	15224
bin	0.0002452128	15082
bin	0.0002460672	14995
bin	0.0002469216	15008
bin	0.000247776	14824
bin	0.0002486304	15011
bin	0.0002494848	14987
bin	0.0002503392	14827
bin	0.0002511936	14791
bin	0.000252048	15114
bin	0.0002529024	14994
bin	0.0002537568	14945
bin	0.0002546112	14568
bin	0.0002554656	14579
bin	0.00025632	14577
bin	0.0002571744	14774
bin	0.0002580288	14647
bin	0.0002588832	14713
bin	0.0002597376	14483
bin	0.000260592	14740
bin	0.0002614464	14715
bin	0.0002623008	14501
bin	0.0002631552	14580
bin	0.0002640096	14503
bin	0.000264864	14524
bin	0.0002657184	14306
bin	0.0002665728	14155
bin	0.0002674272	14364
bin	0.0002682816	14255
bin	0.000269136	13895
bin	0.0002699904	14057
bin	0.0002708448	14062
bin	0.0002716992	13972
bin	0.0002725536	13917
bin	0.000273408	13895
bin	0.0002742624	13721
bin	0.0002751168	13713
bin	0.0002759712	13414
bin	0.0002768256	13430
bin	0.00027768	13508
bin	0.0002785344	13222
bin	0.0002793888	13413
bin	0.0002802432	13241
bin	0.0002810976	13254
bin	0.000281952	13305
bin	0.0002828064	13180
bin	0.0002836608	13252
bin	0.0002845152	13047
bin	0.0002853696	13030
bin	0.000286224	13200
bin	0.0002870784	13199
bin	0.0002879328	13200
bin	0.0002887872	13019
bin	0.0002896416	12831
bin	0.000290496	12834
bin	0.0002913504	12862
bin	0.0002922048	12804
bin	0.0002930592	12850
bin	0.0002939136	12845
bin	0.000294768	12631
bin	0.0002956224	12606
bin	0.0002964768	12638
bin	0.0002973312	12578
bin	0.0002981856	12478
bin	0.00029904	12490
bin	0.0002998944	12384
bin	0.0003007488	12309
bin	0.0003016032	12235
bin	0.0003024576	12141
bin	0.000303312	12297
bin	0.0003041664	12004
bin	0.0003050208	12180
bin	0.0003058752	12244
bin	0.0003067296	12084
bin	0.000307584	12011
bin	0.0003084384	11782
bin	0.0003092928	11926
bin	0.0003101472	11611
bin	0.0003110016	11574
bin	0.000311856	11592
bin	0.0003127104	11572
bin	0.0003135648	11547
bin	0.0003144192	11315
bin	0.0003152736	11321
bin	0.000316128	11193
bin	0.0003169824	11170
bin	0.0003178368	11112
bin	0.0003186912	11017
bin	0.0003195456	10891
bin	0.0003204	10914
bin	0.0003212544	10826
bin	0.0003221088	10711
bin	0.0003229632	10877
bin	0.0003238176	10753
bin	0.000324672	10474
bin	0.0003255264	10469
bin	0.0003263808	10353
bin	0.0003272352	10359
bin	0.0003280896	10213
bin	0.000328944	10181
bin	0.0003297984	10158
bin	0.0003306528	10125
bin	0.0003315072	10025
bin	0.0003323616	9928
bin	0.000333216	9905
bin	0.0003340704	9749
bin	0.0003349248	9659
bin	0.0003357792	9708
bin	0.0003366336	9471
bin	0.000337488	9691
bin	0.0003383424	9520
bin	0.0003391968	9594
bin	0.0003400512	9510
bin	0.0003409056	9352
bin	0.00034176	9248
bin	0.0003426144	9124
bin	0.0003434688	9090
bin	0.0003443232	9106
bin	0.0003451776	9105
bin	0.000346032	8934
bin	0.0003468864	8852
bin	0.0003477408	8897
bin	0.0003485952	8696
bin	0.0003494496	8555
bin	0.000350304	8532
bin	0.0003511584	8376
bin	0.0003520128	8307
bin	0.0003528672	7970
bin	0.0003537216	8092
bin	0.000354576	7926
bin	0.0003554304	7824
bin	0.0003562848	7720
bin	0.0003571392	7666
bin	0.0003579936	7610
bin	0.000358848	7330
bin	0.0003597024	7234
bin	0.0003605568	7181
bin	0.0003614112	7091
bin	0.0003622656	7058
bin	0.00036312	7169
bin	0.0003639744	7133
bin	0.0003648288	7117
bin	0.0003656832	6931
bin	0.0003665376	7002
bin	0.000367392	6894
bin	0.0003682464	6837
bin	0.0003691008	6961
bin	0.0003699552	6953
bin	0.0003708096	6922
bin	0.000371664	6814
bin	0.0003725184	6754
bin	0.0003733728	6604
bin	0.0003742272	6390
bin	0.0003750816	6270
bin	0.000375936	6165
bin	0.0003767904	6075
bin	0.0003776448	5905
bin	0.0003784992	5877
bin	0.0003793536	5886
bin	0.000380208	5633
bin	0.0003810624	5597
bin	0.0003819168	5567
bin	0.0003827712	5435
bin	0.0003836256	5177
bin	0.00038448	5156
bin	0.0003853344	4903
bin	0.0003861888	4892
bin	0.0003870432	4797
bin	0.0003878976	4715
bin	0.000388752	4627
bin	0.0003896064	4345
bin	0.0003904608	4280
bin	0.0003913152	4189
bin	0.0003921696	3992
bin	0.000393024	3906
bin	0.0003938784	3788
bin	0.0003947328	3770
bin	0.0003955872	3660
bin	0.0003964416	3722
bin	0.000397296	3577
bin	0.0003981504	3521
bin	0.0003990048	3461
bin	0.0003998592	3476
bin	0.0004007136	3415
bin	0.000401568	3406
bin	0.0004024224	3422
bin	0.0004032768	3284
bin	0.0004041312	3270
bin	0.0004049856	3177
bin	0.00040584	3161
bin	0.0004066944	3080
bin	0.0004075488	3116
bin	0.0004084032	3056
bin	0.0004092576	2955
bin	0.000410112	2753
bin	0.0004109664	2731
bin	0.0004118208	2683
bin	0.0004126752	2539
bin	0.0004135296	2419
bin	0.000414384	2373
bin	0.0004152384	2407
bin	0.0004160928	2341
bin	0.0004169472	2202
bin	0.0004178016	2117
bin	0.000418656	2083
bin	0.0004195104	1983
bin	0.0004203648	1883
bin	0.0004212192	1861
bin	0.0004220736	1842
bin	0.000422928	1769
bin	0.0004237824	1773
bin	0.0004246368	1703
bin	0.0004254912	1527
bin	0.0004263456	1503
bin	0.0004272	50336
