version 2
run Butterfly-27-20120709-10:43:08-22766
attr alg 3
attr buf 8
attr configname Butterfly
attr datetime 20120709-10:43:08
attr delta 1.4
attr experiment Butterfly
attr ext true
attr inifile altro.ini
attr iterationvars "$buf=8, $ext=true, $ofedge=1, $delta=1.4, $alg=3"
attr iterationvars2 "$buf=8, $ext=true, $ofedge=1, $delta=1.4, $alg=3, $repetition=0"
attr measurement "$buf=8, $ext=true, $ofedge=1, $delta=1.4, $alg=3"
attr network Torus3d_bub
attr ofedge 1
attr processid 22766
attr repetition 0
attr replication #0
attr resultdir altro-results
attr runnumber 27
attr seedset 27

scalar . 	alg 	3
scalar . 	buf 	8
scalar . 	delta 	1.4
scalar . 	ofedge 	1
scalar Torus3d_bub.timer 	#endTime 	0.000885381665306
scalar Torus3d_bub.timer 	#totalHops 	35231789
scalar Torus3d_bub.timer 	#totalPacks 	6291456
scalar Torus3d_bub.timer 	#totalDerouted 	4200007
scalar Torus3d_bub.timer 	#totalOutFlanked 	3953929
scalar Torus3d_bub.timer 	#totalCQRed 	246078
scalar Torus3d_bub.timer 	#LB 	0.000786432
scalar Torus3d_bub.timer 	#ratio 	0.88824066593721
statistic Torus3d_bub.timer 	"Hop Times"
field count 6291456
field mean 2.3547127436339e-05
field stddev 3.1452429715866e-05
field sum 148.14571619212
field sqrsum 0.0097122614821841
field min 3.96690437e-07
field max 0.000486987761213
bin	-INF	0
bin	0	0
bin	7.12e-08	0
bin	1.424e-07	0
bin	2.136e-07	0
bin	2.848e-07	0
bin	3.56e-07	8
bin	4.272e-07	322
bin	4.984e-07	3274
bin	5.696e-07	4111
bin	6.408e-07	5326
bin	7.12e-07	5914
bin	7.832e-07	3767
bin	8.544e-07	7635
bin	9.256e-07	8383
bin	9.968e-07	7078
bin	1.068e-06	7551
bin	1.1392e-06	10776
bin	1.2104e-06	14347
bin	1.2816e-06	10552
bin	1.3528e-06	14512
bin	1.424e-06	12963
bin	1.4952e-06	19309
bin	1.5664e-06	16049
bin	1.6376e-06	15800
bin	1.7088e-06	22930
bin	1.78e-06	17485
bin	1.8512e-06	21009
bin	1.9224e-06	18547
bin	1.9936e-06	22657
bin	2.0648e-06	23510
bin	2.136e-06	22647
bin	2.2072e-06	23982
bin	2.2784e-06	28485
bin	2.3496e-06	24659
bin	2.4208e-06	26221
bin	2.492e-06	31848
bin	2.5632e-06	20816
bin	2.6344e-06	27693
bin	2.7056e-06	23535
bin	2.7768e-06	30367
bin	2.848e-06	21178
bin	2.9192e-06	23583
bin	2.9904e-06	22283
bin	3.0616e-06	26547
bin	3.1328e-06	23189
bin	3.204e-06	24302
bin	3.2752e-06	27230
bin	3.3464e-06	17910
bin	3.4176e-06	19933
bin	3.4888e-06	23876
bin	3.56e-06	22430
bin	3.6312e-06	17339
bin	3.7024e-06	19401
bin	3.7736e-06	22110
bin	3.8448e-06	20755
bin	3.916e-06	21236
bin	3.9872e-06	18897
bin	4.0584e-06	23427
bin	4.1296e-06	18659
bin	4.2008e-06	18888
bin	4.272e-06	23171
bin	4.3432e-06	21001
bin	4.4144e-06	16605
bin	4.4856e-06	16335
bin	4.5568e-06	17140
bin	4.628e-06	20208
bin	4.6992e-06	16509
bin	4.7704e-06	16289
bin	4.8416e-06	20779
bin	4.9128e-06	16388
bin	4.984e-06	17491
bin	5.0552e-06	16290
bin	5.1264e-06	21588
bin	5.1976e-06	17144
bin	5.2688e-06	17199
bin	5.34e-06	19202
bin	5.4112e-06	20993
bin	5.4824e-06	16952
bin	5.5536e-06	17686
bin	5.6248e-06	21980
bin	5.696e-06	16119
bin	5.7672e-06	16797
bin	5.8384e-06	16712
bin	5.9096e-06	19769
bin	5.9808e-06	16362
bin	6.052e-06	15424
bin	6.1232e-06	15801
bin	6.1944e-06	20317
bin	6.2656e-06	15262
bin	6.3368e-06	14969
bin	6.408e-06	19467
bin	6.4792e-06	14961
bin	6.5504e-06	15108
bin	6.6216e-06	15333
bin	6.6928e-06	19557
bin	6.764e-06	14817
bin	6.8352e-06	15219
bin	6.9064e-06	15709
bin	6.9776e-06	18865
bin	7.0488e-06	14980
bin	7.12e-06	14898
bin	7.1912e-06	19052
bin	7.2624e-06	14869
bin	7.3336e-06	14938
bin	7.4048e-06	14926
bin	7.476e-06	19273
bin	7.5472e-06	14454
bin	7.6184e-06	14371
bin	7.6896e-06	15028
bin	7.7608e-06	18264
bin	7.832e-06	14458
bin	7.9032e-06	14022
bin	7.9744e-06	18550
bin	8.0456e-06	14093
bin	8.1168e-06	13855
bin	8.188e-06	14021
bin	8.2592e-06	14150
bin	8.3304e-06	13851
bin	8.4016e-06	13824
bin	8.4728e-06	14041
bin	8.544e-06	17430
bin	8.6152e-06	15728
bin	8.6864e-06	13584
bin	8.7576e-06	20013
bin	8.8288e-06	13459
bin	8.9e-06	15742
bin	8.9712e-06	13622
bin	9.0424e-06	17901
bin	9.1136e-06	13686
bin	9.1848e-06	15656
bin	9.256e-06	14005
bin	9.3272e-06	19363
bin	9.3984e-06	15550
bin	9.4696e-06	13417
bin	9.5408e-06	15850
bin	9.612e-06	13289
bin	9.6832e-06	13287
bin	9.7544e-06	13404
bin	9.8256e-06	15607
bin	9.8968e-06	13150
bin	9.968e-06	13270
bin	1.00392e-05	13698
bin	1.01104e-05	17174
bin	1.01816e-05	13142
bin	1.02528e-05	12936
bin	1.0324e-05	15447
bin	1.03952e-05	13059
bin	1.04664e-05	13069
bin	1.05376e-05	13153
bin	1.06088e-05	13276
bin	1.068e-05	12973
bin	1.07512e-05	13117
bin	1.08224e-05	13245
bin	1.08936e-05	15004
bin	1.09648e-05	13148
bin	1.1036e-05	13219
bin	1.11072e-05	17253
bin	1.11784e-05	13181
bin	1.12496e-05	12735
bin	1.13208e-05	13148
bin	1.1392e-05	15337
bin	1.14632e-05	13073
bin	1.15344e-05	13064
bin	1.16056e-05	13344
bin	1.16768e-05	17088
bin	1.1748e-05	13163
bin	1.18192e-05	13250
bin	1.18904e-05	15328
bin	1.19616e-05	13133
bin	1.20328e-05	12828
bin	1.2104e-05	13132
bin	1.21752e-05	17289
bin	1.22464e-05	12768
bin	1.23176e-05	12780
bin	1.23888e-05	13098
bin	1.246e-05	14397
bin	1.25312e-05	12642
bin	1.26024e-05	12759
bin	1.26736e-05	16822
bin	1.27448e-05	12811
bin	1.2816e-05	12610
bin	1.28872e-05	12547
bin	1.29584e-05	14674
bin	1.30296e-05	12431
bin	1.31008e-05	12594
bin	1.3172e-05	12550
bin	1.32432e-05	12221
bin	1.33144e-05	12373
bin	1.33856e-05	12352
bin	1.34568e-05	12412
bin	1.3528e-05	12451
bin	1.35992e-05	12165
bin	1.36704e-05	12417
bin	1.37416e-05	12257
bin	1.38128e-05	12332
bin	1.3884e-05	12306
bin	1.39552e-05	12411
bin	1.40264e-05	12239
bin	1.40976e-05	12262
bin	1.41688e-05	12244
bin	1.424e-05	12060
bin	1.43112e-05	11961
bin	1.43824e-05	11904
bin	1.44536e-05	12178
bin	1.45248e-05	12003
bin	1.4596e-05	11870
bin	1.46672e-05	11834
bin	1.47384e-05	12240
bin	1.48096e-05	11692
bin	1.48808e-05	11821
bin	1.4952e-05	11933
bin	1.50232e-05	11744
bin	1.50944e-05	11813
bin	1.51656e-05	11692
bin	1.52368e-05	11991
bin	1.5308e-05	11852
bin	1.53792e-05	11667
bin	1.54504e-05	11585
bin	1.55216e-05	11598
bin	1.55928e-05	11615
bin	1.5664e-05	11512
bin	1.57352e-05	11576
bin	1.58064e-05	11277
bin	1.58776e-05	11363
bin	1.59488e-05	11330
bin	1.602e-05	11408
bin	1.60912e-05	11091
bin	1.61624e-05	11170
bin	1.62336e-05	11216
bin	1.63048e-05	11147
bin	1.6376e-05	11007
bin	1.64472e-05	11113
bin	1.65184e-05	11014
bin	1.65896e-05	10886
bin	1.66608e-05	10889
bin	1.6732e-05	10934
bin	1.68032e-05	10954
bin	1.68744e-05	10643
bin	1.69456e-05	10814
bin	1.70168e-05	10837
bin	1.7088e-05	10665
bin	1.71592e-05	10455
bin	1.72304e-05	10585
bin	1.73016e-05	10714
bin	1.73728e-05	10425
bin	1.7444e-05	10679
bin	1.75152e-05	10495
bin	1.75864e-05	10644
bin	1.76576e-05	10252
bin	1.77288e-05	10514
bin	1.78e-05	10424
bin	1.78712e-05	10398
bin	1.79424e-05	10063
bin	1.80136e-05	10266
bin	1.80848e-05	10161
bin	1.8156e-05	9956
bin	1.82272e-05	9923
bin	1.82984e-05	9997
bin	1.83696e-05	10213
bin	1.84408e-05	9897
bin	1.8512e-05	9790
bin	1.85832e-05	9827
bin	1.86544e-05	9820
bin	1.87256e-05	9837
bin	1.87968e-05	9823
bin	1.8868e-05	9734
bin	1.89392e-05	9529
bin	1.90104e-05	9573
bin	1.90816e-05	9467
bin	1.91528e-05	9412
bin	1.9224e-05	9447
bin	1.92952e-05	9465
bin	1.93664e-05	9475
bin	1.94376e-05	9243
bin	1.95088e-05	9185
bin	1.958e-05	9278
bin	1.96512e-05	9342
bin	1.97224e-05	9000
bin	1.97936e-05	8979
bin	1.98648e-05	8919
bin	1.9936e-05	9092
bin	2.00072e-05	8930
bin	2.00784e-05	8867
bin	2.01496e-05	9098
bin	2.02208e-05	8672
bin	2.0292e-05	8770
bin	2.03632e-05	8746
bin	2.04344e-05	8987
bin	2.05056e-05	8549
bin	2.05768e-05	8864
bin	2.0648e-05	8697
bin	2.07192e-05	8628
bin	2.07904e-05	8453
bin	2.08616e-05	8598
bin	2.09328e-05	8712
bin	2.1004e-05	8350
bin	2.10752e-05	8465
bin	2.11464e-05	8698
bin	2.12176e-05	8592
bin	2.12888e-05	8415
bin	2.136e-05	8259
bin	2.14312e-05	8409
bin	2.15024e-05	8312
bin	2.15736e-05	8103
bin	2.16448e-05	8244
bin	2.1716e-05	8367
bin	2.17872e-05	8004
bin	2.18584e-05	8040
bin	2.19296e-05	8140
bin	2.20008e-05	8237
bin	2.2072e-05	7875
bin	2.21432e-05	7966
bin	2.22144e-05	8191
bin	2.22856e-05	8072
bin	2.23568e-05	7601
bin	2.2428e-05	7799
bin	2.24992e-05	7783
bin	2.25704e-05	7568
bin	2.26416e-05	7565
bin	2.27128e-05	7701
bin	2.2784e-05	7679
bin	2.28552e-05	7409
bin	2.29264e-05	7334
bin	2.29976e-05	7639
bin	2.30688e-05	7614
bin	2.314e-05	7322
bin	2.32112e-05	7410
bin	2.32824e-05	7398
bin	2.33536e-05	7375
bin	2.34248e-05	7239
bin	2.3496e-05	7410
bin	2.35672e-05	7274
bin	2.36384e-05	7044
bin	2.37096e-05	7115
bin	2.37808e-05	7342
bin	2.3852e-05	7145
bin	2.39232e-05	7030
bin	2.39944e-05	7156
bin	2.40656e-05	6939
bin	2.41368e-05	6964
bin	2.4208e-05	6886
bin	2.42792e-05	6983
bin	2.43504e-05	7035
bin	2.44216e-05	6702
bin	2.44928e-05	6757
bin	2.4564e-05	6790
bin	2.46352e-05	6835
bin	2.47064e-05	6663
bin	2.47776e-05	6732
bin	2.48488e-05	6768
bin	2.492e-05	6644
bin	2.49912e-05	6687
bin	2.50624e-05	6626
bin	2.51336e-05	6676
bin	2.52048e-05	6415
bin	2.5276e-05	6371
bin	2.53472e-05	6501
bin	2.54184e-05	6509
bin	2.54896e-05	6366
bin	2.55608e-05	6387
bin	2.5632e-05	6277
bin	2.57032e-05	6358
bin	2.57744e-05	6145
bin	2.58456e-05	6336
bin	2.59168e-05	6292
bin	2.5988e-05	6127
bin	2.60592e-05	6119
bin	2.61304e-05	6007
bin	2.62016e-05	5990
bin	2.62728e-05	5913
bin	2.6344e-05	6046
bin	2.64152e-05	5976
bin	2.64864e-05	5965
bin	2.65576e-05	5952
bin	2.66288e-05	5947
bin	2.67e-05	5783
bin	2.67712e-05	5866
bin	2.68424e-05	5739
bin	2.69136e-05	5932
bin	2.69848e-05	5664
bin	2.7056e-05	5869
bin	2.71272e-05	5791
bin	2.71984e-05	5698
bin	2.72696e-05	5763
bin	2.73408e-05	5583
bin	2.7412e-05	5591
bin	2.74832e-05	5513
bin	2.75544e-05	5542
bin	2.76256e-05	5525
bin	2.76968e-05	5550
bin	2.7768e-05	5607
bin	2.78392e-05	5394
bin	2.79104e-05	5337
bin	2.79816e-05	5483
bin	2.80528e-05	5344
bin	2.8124e-05	5207
bin	2.81952e-05	5316
bin	2.82664e-05	5193
bin	2.83376e-05	5093
bin	2.84088e-05	5215
bin	2.848e-05	5347
bin	2.85512e-05	5193
bin	2.86224e-05	5099
bin	2.86936e-05	5121
bin	2.87648e-05	5213
bin	2.8836e-05	5029
bin	2.89072e-05	4979
bin	2.89784e-05	5190
bin	2.90496e-05	4986
bin	2.91208e-05	4850
bin	2.9192e-05	4995
bin	2.92632e-05	5027
bin	2.93344e-05	5024
bin	2.94056e-05	4981
bin	2.94768e-05	4891
bin	2.9548e-05	4859
bin	2.96192e-05	4880
bin	2.96904e-05	4729
bin	2.97616e-05	4949
bin	2.98328e-05	4851
bin	2.9904e-05	4764
bin	2.99752e-05	4657
bin	3.00464e-05	4793
bin	3.01176e-05	4723
bin	3.01888e-05	4657
bin	3.026e-05	4762
bin	3.03312e-05	4594
bin	3.04024e-05	4578
bin	3.04736e-05	4491
bin	3.05448e-05	4567
bin	3.0616e-05	4566
bin	3.06872e-05	4458
bin	3.07584e-05	4314
bin	3.08296e-05	4531
bin	3.09008e-05	4344
bin	3.0972e-05	4317
bin	3.10432e-05	4460
bin	3.11144e-05	4302
bin	3.11856e-05	4347
bin	3.12568e-05	4240
bin	3.1328e-05	4404
bin	3.13992e-05	4269
bin	3.14704e-05	4057
bin	3.15416e-05	4189
bin	3.16128e-05	4180
bin	3.1684e-05	4092
bin	3.17552e-05	4076
bin	3.18264e-05	4142
bin	3.18976e-05	4016
bin	3.19688e-05	4182
bin	3.204e-05	3922
bin	3.21112e-05	4128
bin	3.21824e-05	4101
bin	3.22536e-05	4043
bin	3.23248e-05	4040
bin	3.2396e-05	4131
bin	3.24672e-05	3949
bin	3.25384e-05	3952
bin	3.26096e-05	3965
bin	3.26808e-05	3908
bin	3.2752e-05	3914
bin	3.28232e-05	3911
bin	3.28944e-05	3910
bin	3.29656e-05	3931
bin	3.30368e-05	3805
bin	3.3108e-05	3740
bin	3.31792e-05	3750
bin	3.32504e-05	3855
bin	3.33216e-05	3694
bin	3.33928e-05	3782
bin	3.3464e-05	3738
bin	3.35352e-05	3739
bin	3.36064e-05	3663
bin	3.36776e-05	3799
bin	3.37488e-05	3760
bin	3.382e-05	3597
bin	3.38912e-05	3584
bin	3.39624e-05	3666
bin	3.40336e-05	3608
bin	3.41048e-05	3522
bin	3.4176e-05	3678
bin	3.42472e-05	3541
bin	3.43184e-05	3622
bin	3.43896e-05	3679
bin	3.44608e-05	3570
bin	3.4532e-05	3556
bin	3.46032e-05	3553
bin	3.46744e-05	3550
bin	3.47456e-05	3612
bin	3.48168e-05	3611
bin	3.4888e-05	3559
bin	3.49592e-05	3473
bin	3.50304e-05	3475
bin	3.51016e-05	3423
bin	3.51728e-05	3424
bin	3.5244e-05	3532
bin	3.53152e-05	3488
bin	3.53864e-05	3388
bin	3.54576e-05	3460
bin	3.55288e-05	3375
bin	3.56e-05	1073151
statistic Torus3d_bub.timer 	"Life Times"
field count 6291456
field mean 9.5006074549901e-05
field stddev 7.1708176891868e-05
field sum 597.72653776342
field sqrsum 0.089138707670884
field min 5.50475539e-07
field max 0.000575877856222
bin	-INF	0
bin	0	5917
bin	8.544e-07	28449
bin	1.7088e-06	39525
bin	2.5632e-06	31919
bin	3.4176e-06	34170
bin	4.272e-06	38308
bin	5.1264e-06	45087
bin	5.9808e-06	38439
bin	6.8352e-06	37109
bin	7.6896e-06	43219
bin	8.544e-06	55394
bin	9.3984e-06	56391
bin	1.02528e-05	47634
bin	1.11072e-05	69888
bin	1.19616e-05	57506
bin	1.2816e-05	49888
bin	1.36704e-05	48149
bin	1.45248e-05	46626
bin	1.53792e-05	49412
bin	1.62336e-05	47634
bin	1.7088e-05	49330
bin	1.79424e-05	46605
bin	1.87968e-05	43828
bin	1.96512e-05	41041
bin	2.05056e-05	41377
bin	2.136e-05	42723
bin	2.22144e-05	40732
bin	2.30688e-05	36782
bin	2.39232e-05	35343
bin	2.47776e-05	34240
bin	2.5632e-05	32426
bin	2.64864e-05	31346
bin	2.73408e-05	30298
bin	2.81952e-05	30143
bin	2.90496e-05	28978
bin	2.9904e-05	28948
bin	3.07584e-05	29493
bin	3.16128e-05	28894
bin	3.24672e-05	28850
bin	3.33216e-05	29102
bin	3.4176e-05	29875
bin	3.50304e-05	29759
bin	3.58848e-05	29743
bin	3.67392e-05	30128
bin	3.75936e-05	30217
bin	3.8448e-05	29940
bin	3.93024e-05	29567
bin	4.01568e-05	29865
bin	4.10112e-05	29719
bin	4.18656e-05	29601
bin	4.272e-05	29333
bin	4.35744e-05	29701
bin	4.44288e-05	29506
bin	4.52832e-05	29256
bin	4.61376e-05	28951
bin	4.6992e-05	28810
bin	4.78464e-05	28266
bin	4.87008e-05	28370
bin	4.95552e-05	28300
bin	5.04096e-05	28062
bin	5.1264e-05	27927
bin	5.21184e-05	28250
bin	5.29728e-05	28367
bin	5.38272e-05	27820
bin	5.46816e-05	27723
bin	5.5536e-05	27303
bin	5.63904e-05	27088
bin	5.72448e-05	26988
bin	5.80992e-05	26830
bin	5.89536e-05	26735
bin	5.9808e-05	26604
bin	6.06624e-05	26298
bin	6.15168e-05	26441
bin	6.23712e-05	26179
bin	6.32256e-05	26017
bin	6.408e-05	25962
bin	6.49344e-05	26134
bin	6.57888e-05	26440
bin	6.66432e-05	26172
bin	6.74976e-05	25892
bin	6.8352e-05	26187
bin	6.92064e-05	26553
bin	7.00608e-05	26863
bin	7.09152e-05	26485
bin	7.17696e-05	26539
bin	7.2624e-05	26637
bin	7.34784e-05	26359
bin	7.43328e-05	26024
bin	7.51872e-05	25489
bin	7.60416e-05	25460
bin	7.6896e-05	25690
bin	7.77504e-05	26051
bin	7.86048e-05	26090
bin	7.94592e-05	25834
bin	8.03136e-05	25568
bin	8.1168e-05	25579
bin	8.20224e-05	25707
bin	8.28768e-05	25608
bin	8.37312e-05	25455
bin	8.45856e-05	25698
bin	8.544e-05	25403
bin	8.62944e-05	25067
bin	8.71488e-05	25151
bin	8.80032e-05	25019
bin	8.88576e-05	24994
bin	8.9712e-05	24685
bin	9.05664e-05	24640
bin	9.14208e-05	24685
bin	9.22752e-05	24544
bin	9.31296e-05	24411
bin	9.3984e-05	24200
bin	9.48384e-05	24181
bin	9.56928e-05	23874
bin	9.65472e-05	24023
bin	9.74016e-05	23572
bin	9.8256e-05	23607
bin	9.91104e-05	23227
bin	9.99648e-05	23304
bin	0.0001008192	23529
bin	0.0001016736	23873
bin	0.000102528	23475
bin	0.0001033824	23542
bin	0.0001042368	23398
bin	0.0001050912	23660
bin	0.0001059456	23320
bin	0.0001068	23311
bin	0.0001076544	23335
bin	0.0001085088	23203
bin	0.0001093632	23339
bin	0.0001102176	23071
bin	0.000111072	23177
bin	0.0001119264	22985
bin	0.0001127808	22625
bin	0.0001136352	22648
bin	0.0001144896	22339
bin	0.000115344	22543
bin	0.0001161984	22275
bin	0.0001170528	22475
bin	0.0001179072	22233
bin	0.0001187616	22424
bin	0.000119616	22404
bin	0.0001204704	22218
bin	0.0001213248	22323
bin	0.0001221792	22302
bin	0.0001230336	22281
bin	0.000123888	22257
bin	0.0001247424	22286
bin	0.0001255968	21851
bin	0.0001264512	21646
bin	0.0001273056	21809
bin	0.00012816	21626
bin	0.0001290144	21551
bin	0.0001298688	21206
bin	0.0001307232	21194
bin	0.0001315776	21253
bin	0.000132432	21095
bin	0.0001332864	20660
bin	0.0001341408	20680
bin	0.0001349952	20721
bin	0.0001358496	20431
bin	0.000136704	20653
bin	0.0001375584	20777
bin	0.0001384128	20577
bin	0.0001392672	20445
bin	0.0001401216	20230
bin	0.000140976	20175
bin	0.0001418304	20083
bin	0.0001426848	20050
bin	0.0001435392	19984
bin	0.0001443936	19812
bin	0.000145248	19327
bin	0.0001461024	19345
bin	0.0001469568	19043
bin	0.0001478112	18766
bin	0.0001486656	18644
bin	0.00014952	18572
bin	0.0001503744	18315
bin	0.0001512288	18328
bin	0.0001520832	18325
bin	0.0001529376	17862
bin	0.000153792	17752
bin	0.0001546464	17487
bin	0.0001555008	17481
bin	0.0001563552	17367
bin	0.0001572096	17195
bin	0.000158064	16963
bin	0.0001589184	16723
bin	0.0001597728	16758
bin	0.0001606272	16597
bin	0.0001614816	16301
bin	0.000162336	16142
bin	0.0001631904	16177
bin	0.0001640448	15620
bin	0.0001648992	15550
bin	0.0001657536	15426
bin	0.000166608	15222
bin	0.0001674624	15116
bin	0.0001683168	14996
bin	0.0001691712	14861
bin	0.0001700256	14629
bin	0.00017088	14435
bin	0.0001717344	14164
bin	0.0001725888	13838
bin	0.0001734432	14018
bin	0.0001742976	14023
bin	0.000175152	13847
bin	0.0001760064	13793
bin	0.0001768608	13710
bin	0.0001777152	13283
bin	0.0001785696	13324
bin	0.000179424	13133
bin	0.0001802784	12826
bin	0.0001811328	12682
bin	0.0001819872	12610
bin	0.0001828416	12304
bin	0.000183696	12181
bin	0.0001845504	12044
bin	0.0001854048	11773
bin	0.0001862592	11779
bin	0.0001871136	11759
bin	0.000187968	11427
bin	0.0001888224	11391
bin	0.0001896768	11303
bin	0.0001905312	11118
bin	0.0001913856	10997
bin	0.00019224	10824
bin	0.0001930944	10655
bin	0.0001939488	10451
bin	0.0001948032	10475
bin	0.0001956576	10244
bin	0.000196512	10283
bin	0.0001973664	10251
bin	0.0001982208	9949
bin	0.0001990752	9672
bin	0.0001999296	9676
bin	0.000200784	9589
bin	0.0002016384	9479
bin	0.0002024928	9310
bin	0.0002033472	9171
bin	0.0002042016	8950
bin	0.000205056	8943
bin	0.0002059104	8792
bin	0.0002067648	8557
bin	0.0002076192	8473
bin	0.0002084736	8341
bin	0.000209328	8160
bin	0.0002101824	8172
bin	0.0002110368	8104
bin	0.0002118912	7932
bin	0.0002127456	7821
bin	0.0002136	7670
bin	0.0002144544	7497
bin	0.0002153088	7381
bin	0.0002161632	7270
bin	0.0002170176	7118
bin	0.000217872	6891
bin	0.0002187264	6909
bin	0.0002195808	6684
bin	0.0002204352	6651
bin	0.0002212896	6506
bin	0.000222144	6414
bin	0.0002229984	6209
bin	0.0002238528	6146
bin	0.0002247072	6051
bin	0.0002255616	5822
bin	0.000226416	5992
bin	0.0002272704	5786
bin	0.0002281248	5762
bin	0.0002289792	5587
bin	0.0002298336	5749
bin	0.000230688	5626
bin	0.0002315424	5578
bin	0.0002323968	5343
bin	0.0002332512	5187
bin	0.0002341056	5145
bin	0.00023496	5200
bin	0.0002358144	4952
bin	0.0002366688	4839
bin	0.0002375232	4757
bin	0.0002383776	4745
bin	0.000239232	4508
bin	0.0002400864	4538
bin	0.0002409408	4454
bin	0.0002417952	4384
bin	0.0002426496	4306
bin	0.000243504	4205
bin	0.0002443584	4158
bin	0.0002452128	4008
bin	0.0002460672	3965
bin	0.0002469216	3943
bin	0.000247776	3775
bin	0.0002486304	3821
bin	0.0002494848	3804
bin	0.0002503392	3775
bin	0.0002511936	3646
bin	0.000252048	3641
bin	0.0002529024	3499
bin	0.0002537568	3390
bin	0.0002546112	3392
bin	0.0002554656	3312
bin	0.00025632	3153
bin	0.0002571744	3156
bin	0.0002580288	3137
bin	0.0002588832	3031
bin	0.0002597376	2994
bin	0.000260592	2928
bin	0.0002614464	2739
bin	0.0002623008	2802
bin	0.0002631552	2809
bin	0.0002640096	2747
bin	0.000264864	2769
bin	0.0002657184	2716
bin	0.0002665728	2609
bin	0.0002674272	2550
bin	0.0002682816	2473
bin	0.000269136	2393
bin	0.0002699904	2410
bin	0.0002708448	2346
bin	0.0002716992	2270
bin	0.0002725536	2371
bin	0.000273408	2232
bin	0.0002742624	2197
bin	0.0002751168	2101
bin	0.0002759712	2086
bin	0.0002768256	2016
bin	0.00027768	1957
bin	0.0002785344	1969
bin	0.0002793888	1928
bin	0.0002802432	1919
bin	0.0002810976	1855
bin	0.000281952	1875
bin	0.0002828064	1803
bin	0.0002836608	1770
bin	0.0002845152	1691
bin	0.0002853696	1630
bin	0.000286224	1592
bin	0.0002870784	1531
bin	0.0002879328	1534
bin	0.0002887872	1517
bin	0.0002896416	1471
bin	0.000290496	1487
bin	0.0002913504	1450
bin	0.0002922048	1416
bin	0.0002930592	1399
bin	0.0002939136	1387
bin	0.000294768	1375
bin	0.0002956224	1321
bin	0.0002964768	1321
bin	0.0002973312	1288
bin	0.0002981856	1250
bin	0.00029904	1209
bin	0.0002998944	1190
bin	0.0003007488	1149
bin	0.0003016032	1172
bin	0.0003024576	1121
bin	0.000303312	1128
bin	0.0003041664	1076
bin	0.0003050208	1061
bin	0.0003058752	1059
bin	0.0003067296	964
bin	0.000307584	950
bin	0.0003084384	988
bin	0.0003092928	953
bin	0.0003101472	920
bin	0.0003110016	957
bin	0.000311856	995
bin	0.0003127104	991
bin	0.0003135648	985
bin	0.0003144192	924
bin	0.0003152736	889
bin	0.000316128	839
bin	0.0003169824	916
bin	0.0003178368	862
bin	0.0003186912	749
bin	0.0003195456	833
bin	0.0003204	789
bin	0.0003212544	757
bin	0.0003221088	799
bin	0.0003229632	710
bin	0.0003238176	690
bin	0.000324672	670
bin	0.0003255264	683
bin	0.0003263808	706
bin	0.0003272352	696
bin	0.0003280896	703
bin	0.000328944	680
bin	0.0003297984	667
bin	0.0003306528	671
bin	0.0003315072	626
bin	0.0003323616	613
bin	0.000333216	596
bin	0.0003340704	575
bin	0.0003349248	565
bin	0.0003357792	571
bin	0.0003366336	553
bin	0.000337488	541
bin	0.0003383424	543
bin	0.0003391968	528
bin	0.0003400512	503
bin	0.0003409056	470
bin	0.00034176	488
bin	0.0003426144	514
bin	0.0003434688	477
bin	0.0003443232	485
bin	0.0003451776	477
bin	0.000346032	459
bin	0.0003468864	424
bin	0.0003477408	415
bin	0.0003485952	415
bin	0.0003494496	404
bin	0.000350304	414
bin	0.0003511584	377
bin	0.0003520128	367
bin	0.0003528672	354
bin	0.0003537216	337
bin	0.000354576	366
bin	0.0003554304	377
bin	0.0003562848	331
bin	0.0003571392	323
bin	0.0003579936	362
bin	0.000358848	344
bin	0.0003597024	339
bin	0.0003605568	336
bin	0.0003614112	300
bin	0.0003622656	301
bin	0.00036312	305
bin	0.0003639744	274
bin	0.0003648288	286
bin	0.0003656832	270
bin	0.0003665376	269
bin	0.000367392	272
bin	0.0003682464	237
bin	0.0003691008	277
bin	0.0003699552	243
bin	0.0003708096	205
bin	0.000371664	221
bin	0.0003725184	194
bin	0.0003733728	202
bin	0.0003742272	188
bin	0.0003750816	225
bin	0.000375936	197
bin	0.0003767904	172
bin	0.0003776448	184
bin	0.0003784992	173
bin	0.0003793536	169
bin	0.000380208	175
bin	0.0003810624	172
bin	0.0003819168	189
bin	0.0003827712	149
bin	0.0003836256	166
bin	0.00038448	160
bin	0.0003853344	147
bin	0.0003861888	144
bin	0.0003870432	137
bin	0.0003878976	114
bin	0.000388752	126
bin	0.0003896064	123
bin	0.0003904608	130
bin	0.0003913152	124
bin	0.0003921696	116
bin	0.000393024	118
bin	0.0003938784	110
bin	0.0003947328	108
bin	0.0003955872	104
bin	0.0003964416	89
bin	0.000397296	100
bin	0.0003981504	91
bin	0.0003990048	100
bin	0.0003998592	91
bin	0.0004007136	72
bin	0.000401568	79
bin	0.0004024224	103
bin	0.0004032768	79
bin	0.0004041312	90
bin	0.0004049856	74
bin	0.00040584	67
bin	0.0004066944	71
bin	0.0004075488	67
bin	0.0004084032	60
bin	0.0004092576	48
bin	0.000410112	58
bin	0.0004109664	72
bin	0.0004118208	49
bin	0.0004126752	58
bin	0.0004135296	41
bin	0.000414384	45
bin	0.0004152384	53
bin	0.0004160928	32
bin	0.0004169472	44
bin	0.0004178016	37
bin	0.000418656	38
bin	0.0004195104	37
bin	0.0004203648	40
bin	0.0004212192	45
bin	0.0004220736	33
bin	0.000422928	40
bin	0.0004237824	25
bin	0.0004246368	27
bin	0.0004254912	20
bin	0.0004263456	35
bin	0.0004272	807
