version 2
run Butterfly-15-20120709-10:43:08-22754
attr alg 3
attr buf 8
attr configname Butterfly
attr datetime 20120709-10:43:08
attr delta 0.8
attr experiment Butterfly
attr ext true
attr inifile altro.ini
attr iterationvars "$buf=8, $ext=true, $ofedge=1, $delta=0.8, $alg=3"
attr iterationvars2 "$buf=8, $ext=true, $ofedge=1, $delta=0.8, $alg=3, $repetition=0"
attr measurement "$buf=8, $ext=true, $ofedge=1, $delta=0.8, $alg=3"
attr network Torus3d_bub
attr ofedge 1
attr processid 22754
attr repetition 0
attr replication #0
attr resultdir altro-results
attr runnumber 15
attr seedset 15

scalar . 	alg 	3
scalar . 	buf 	8
scalar . 	delta 	0.8
scalar . 	ofedge 	1
scalar Torus3d_bub.timer 	#endTime 	0.001052145331893
scalar Torus3d_bub.timer 	#totalHops 	33441139
scalar Torus3d_bub.timer 	#totalPacks 	6291456
scalar Torus3d_bub.timer 	#totalDerouted 	4140498
scalar Torus3d_bub.timer 	#totalOutFlanked 	3938512
scalar Torus3d_bub.timer 	#totalCQRed 	201986
scalar Torus3d_bub.timer 	#LB 	0.000786432
scalar Torus3d_bub.timer 	#ratio 	0.74745567571456
statistic Torus3d_bub.timer 	"Hop Times"
field count 6291456
field mean 6.2038593515379e-06
field stddev 6.2331665352752e-06
field sum 39.031308140389
field sqrsum 0.00048658265240589
field min 4.26999894e-07
field max 0.000187339332289
bin	-INF	0
bin	0	0
bin	7.12e-08	0
bin	1.424e-07	0
bin	2.136e-07	0
bin	2.848e-07	0
bin	3.56e-07	1
bin	4.272e-07	13716
bin	4.984e-07	19287
bin	5.696e-07	19604
bin	6.408e-07	27545
bin	7.12e-07	33728
bin	7.832e-07	24184
bin	8.544e-07	34508
bin	9.256e-07	56028
bin	9.968e-07	36072
bin	1.068e-06	35747
bin	1.1392e-06	63054
bin	1.2104e-06	59287
bin	1.2816e-06	41154
bin	1.3528e-06	47238
bin	1.424e-06	38316
bin	1.4952e-06	61878
bin	1.5664e-06	39148
bin	1.6376e-06	42729
bin	1.7088e-06	54349
bin	1.78e-06	57958
bin	1.8512e-06	52024
bin	1.9224e-06	67638
bin	1.9936e-06	66391
bin	2.0648e-06	63053
bin	2.136e-06	69846
bin	2.2072e-06	66249
bin	2.2784e-06	87185
bin	2.3496e-06	68753
bin	2.4208e-06	82830
bin	2.492e-06	84494
bin	2.5632e-06	80887
bin	2.6344e-06	78133
bin	2.7056e-06	82529
bin	2.7768e-06	89539
bin	2.848e-06	72791
bin	2.9192e-06	78705
bin	2.9904e-06	69454
bin	3.0616e-06	83770
bin	3.1328e-06	68644
bin	3.204e-06	74281
bin	3.2752e-06	77716
bin	3.3464e-06	63217
bin	3.4176e-06	62704
bin	3.4888e-06	68680
bin	3.56e-06	71239
bin	3.6312e-06	57590
bin	3.7024e-06	62241
bin	3.7736e-06	60659
bin	3.8448e-06	66557
bin	3.916e-06	59093
bin	3.9872e-06	56007
bin	4.0584e-06	63115
bin	4.1296e-06	53372
bin	4.2008e-06	51278
bin	4.272e-06	57321
bin	4.3432e-06	58665
bin	4.4144e-06	48206
bin	4.4856e-06	51639
bin	4.5568e-06	47305
bin	4.628e-06	55224
bin	4.6992e-06	46210
bin	4.7704e-06	45955
bin	4.8416e-06	53021
bin	4.9128e-06	43899
bin	4.984e-06	43594
bin	5.0552e-06	46332
bin	5.1264e-06	56861
bin	5.1976e-06	41169
bin	5.2688e-06	45483
bin	5.34e-06	36243
bin	5.4112e-06	50454
bin	5.4824e-06	38331
bin	5.5536e-06	35896
bin	5.6248e-06	48224
bin	5.696e-06	36110
bin	5.7672e-06	35601
bin	5.8384e-06	37975
bin	5.9096e-06	42062
bin	5.9808e-06	29968
bin	6.052e-06	33290
bin	6.1232e-06	27997
bin	6.1944e-06	36351
bin	6.2656e-06	26476
bin	6.3368e-06	24855
bin	6.408e-06	33492
bin	6.4792e-06	23123
bin	6.5504e-06	22519
bin	6.6216e-06	22190
bin	6.6928e-06	29936
bin	6.764e-06	19784
bin	6.8352e-06	20114
bin	6.9064e-06	17853
bin	6.9776e-06	26096
bin	7.0488e-06	16618
bin	7.12e-06	15943
bin	7.1912e-06	23624
bin	7.2624e-06	15115
bin	7.3336e-06	14768
bin	7.4048e-06	14636
bin	7.476e-06	23232
bin	7.5472e-06	13805
bin	7.6184e-06	15362
bin	7.6896e-06	13727
bin	7.7608e-06	23264
bin	7.832e-06	13909
bin	7.9032e-06	14492
bin	7.9744e-06	21378
bin	8.0456e-06	14368
bin	8.1168e-06	12942
bin	8.188e-06	13641
bin	8.2592e-06	17309
bin	8.3304e-06	12268
bin	8.4016e-06	14124
bin	8.4728e-06	11642
bin	8.544e-06	20772
bin	8.6152e-06	11551
bin	8.6864e-06	14982
bin	8.7576e-06	18463
bin	8.8288e-06	14073
bin	8.9e-06	10019
bin	8.9712e-06	13213
bin	9.0424e-06	19086
bin	9.1136e-06	8573
bin	9.1848e-06	12607
bin	9.256e-06	8011
bin	9.3272e-06	19613
bin	9.3984e-06	7905
bin	9.4696e-06	11816
bin	9.5408e-06	10415
bin	9.612e-06	11752
bin	9.6832e-06	7561
bin	9.7544e-06	9468
bin	9.8256e-06	14923
bin	9.8968e-06	7305
bin	9.968e-06	9644
bin	1.00392e-05	7350
bin	1.01104e-05	16777
bin	1.01816e-05	7477
bin	1.02528e-05	9256
bin	1.0324e-05	12373
bin	1.03952e-05	9495
bin	1.04664e-05	6995
bin	1.05376e-05	9075
bin	1.06088e-05	11378
bin	1.068e-05	6859
bin	1.07512e-05	8613
bin	1.08224e-05	6744
bin	1.08936e-05	12692
bin	1.09648e-05	6972
bin	1.1036e-05	8110
bin	1.11072e-05	13829
bin	1.11784e-05	8716
bin	1.12496e-05	5952
bin	1.13208e-05	8598
bin	1.1392e-05	12998
bin	1.14632e-05	6834
bin	1.15344e-05	7450
bin	1.16056e-05	6934
bin	1.16768e-05	14435
bin	1.1748e-05	7022
bin	1.18192e-05	7224
bin	1.18904e-05	12303
bin	1.19616e-05	10543
bin	1.20328e-05	7685
bin	1.2104e-05	8326
bin	1.21752e-05	16444
bin	1.22464e-05	6991
bin	1.23176e-05	8461
bin	1.23888e-05	6834
bin	1.246e-05	10842
bin	1.25312e-05	9093
bin	1.26024e-05	6585
bin	1.26736e-05	14639
bin	1.27448e-05	9845
bin	1.2816e-05	5396
bin	1.28872e-05	9291
bin	1.29584e-05	9607
bin	1.30296e-05	6718
bin	1.31008e-05	5770
bin	1.3172e-05	6732
bin	1.32432e-05	6967
bin	1.33144e-05	6461
bin	1.33856e-05	6282
bin	1.34568e-05	6852
bin	1.3528e-05	6862
bin	1.35992e-05	5438
bin	1.36704e-05	6085
bin	1.37416e-05	6840
bin	1.38128e-05	6149
bin	1.3884e-05	5325
bin	1.39552e-05	6067
bin	1.40264e-05	6218
bin	1.40976e-05	5895
bin	1.41688e-05	6007
bin	1.424e-05	6268
bin	1.43112e-05	5891
bin	1.43824e-05	5416
bin	1.44536e-05	5385
bin	1.45248e-05	6287
bin	1.4596e-05	5526
bin	1.46672e-05	5055
bin	1.47384e-05	5498
bin	1.48096e-05	5358
bin	1.48808e-05	4938
bin	1.4952e-05	4980
bin	1.50232e-05	5428
bin	1.50944e-05	4737
bin	1.51656e-05	4598
bin	1.52368e-05	4462
bin	1.5308e-05	5154
bin	1.53792e-05	4365
bin	1.54504e-05	4215
bin	1.55216e-05	4407
bin	1.55928e-05	4325
bin	1.5664e-05	3943
bin	1.57352e-05	3750
bin	1.58064e-05	4209
bin	1.58776e-05	3657
bin	1.59488e-05	3570
bin	1.602e-05	3367
bin	1.60912e-05	3885
bin	1.61624e-05	3471
bin	1.62336e-05	3242
bin	1.63048e-05	3493
bin	1.6376e-05	3409
bin	1.64472e-05	3136
bin	1.65184e-05	3046
bin	1.65896e-05	3506
bin	1.66608e-05	3009
bin	1.6732e-05	3007
bin	1.68032e-05	2971
bin	1.68744e-05	3385
bin	1.69456e-05	3201
bin	1.70168e-05	2962
bin	1.7088e-05	3102
bin	1.71592e-05	3109
bin	1.72304e-05	2948
bin	1.73016e-05	2681
bin	1.73728e-05	3206
bin	1.7444e-05	2776
bin	1.75152e-05	2924
bin	1.75864e-05	2859
bin	1.76576e-05	3132
bin	1.77288e-05	3084
bin	1.78e-05	2919
bin	1.78712e-05	2985
bin	1.79424e-05	2983
bin	1.80136e-05	2980
bin	1.80848e-05	2722
bin	1.8156e-05	3041
bin	1.82272e-05	2816
bin	1.82984e-05	2892
bin	1.83696e-05	2799
bin	1.84408e-05	2927
bin	1.8512e-05	2863
bin	1.85832e-05	2703
bin	1.86544e-05	2794
bin	1.87256e-05	2698
bin	1.87968e-05	2668
bin	1.8868e-05	2606
bin	1.89392e-05	2659
bin	1.90104e-05	2323
bin	1.90816e-05	2630
bin	1.91528e-05	2444
bin	1.9224e-05	2458
bin	1.92952e-05	2464
bin	1.93664e-05	2338
bin	1.94376e-05	2249
bin	1.95088e-05	2303
bin	1.958e-05	2346
bin	1.96512e-05	2123
bin	1.97224e-05	2245
bin	1.97936e-05	2030
bin	1.98648e-05	2231
bin	1.9936e-05	1864
bin	2.00072e-05	2004
bin	2.00784e-05	2059
bin	2.01496e-05	1938
bin	2.02208e-05	1920
bin	2.0292e-05	1854
bin	2.03632e-05	2037
bin	2.04344e-05	1783
bin	2.05056e-05	1866
bin	2.05768e-05	1722
bin	2.0648e-05	1883
bin	2.07192e-05	1663
bin	2.07904e-05	1823
bin	2.08616e-05	1782
bin	2.09328e-05	1724
bin	2.1004e-05	1660
bin	2.10752e-05	1638
bin	2.11464e-05	1735
bin	2.12176e-05	1594
bin	2.12888e-05	1655
bin	2.136e-05	1614
bin	2.14312e-05	1750
bin	2.15024e-05	1579
bin	2.15736e-05	1687
bin	2.16448e-05	1750
bin	2.1716e-05	1766
bin	2.17872e-05	1717
bin	2.18584e-05	1727
bin	2.19296e-05	1814
bin	2.20008e-05	1615
bin	2.2072e-05	1748
bin	2.21432e-05	1741
bin	2.22144e-05	1867
bin	2.22856e-05	1662
bin	2.23568e-05	1772
bin	2.2428e-05	1849
bin	2.24992e-05	2110
bin	2.25704e-05	1749
bin	2.26416e-05	1675
bin	2.27128e-05	1800
bin	2.2784e-05	1741
bin	2.28552e-05	1771
bin	2.29264e-05	1618
bin	2.29976e-05	1693
bin	2.30688e-05	1592
bin	2.314e-05	1635
bin	2.32112e-05	1604
bin	2.32824e-05	1850
bin	2.33536e-05	1480
bin	2.34248e-05	1484
bin	2.3496e-05	1503
bin	2.35672e-05	1377
bin	2.36384e-05	1462
bin	2.37096e-05	1339
bin	2.37808e-05	1485
bin	2.3852e-05	1258
bin	2.39232e-05	1337
bin	2.39944e-05	1250
bin	2.40656e-05	1392
bin	2.41368e-05	1239
bin	2.4208e-05	1103
bin	2.42792e-05	1264
bin	2.43504e-05	1177
bin	2.44216e-05	1244
bin	2.44928e-05	1141
bin	2.4564e-05	1224
bin	2.46352e-05	1107
bin	2.47064e-05	1214
bin	2.47776e-05	1142
bin	2.48488e-05	1148
bin	2.492e-05	1210
bin	2.49912e-05	1090
bin	2.50624e-05	1179
bin	2.51336e-05	1102
bin	2.52048e-05	1229
bin	2.5276e-05	1106
bin	2.53472e-05	1222
bin	2.54184e-05	1179
bin	2.54896e-05	1258
bin	2.55608e-05	1239
bin	2.5632e-05	1257
bin	2.57032e-05	1322
bin	2.57744e-05	1228
bin	2.58456e-05	1292
bin	2.59168e-05	1198
bin	2.5988e-05	1218
bin	2.60592e-05	1240
bin	2.61304e-05	1268
bin	2.62016e-05	1299
bin	2.62728e-05	1298
bin	2.6344e-05	1359
bin	2.64152e-05	1350
bin	2.64864e-05	1357
bin	2.65576e-05	1351
bin	2.66288e-05	1465
bin	2.67e-05	1441
bin	2.67712e-05	1409
bin	2.68424e-05	1427
bin	2.69136e-05	1460
bin	2.69848e-05	1464
bin	2.7056e-05	1481
bin	2.71272e-05	1465
bin	2.71984e-05	1426
bin	2.72696e-05	1452
bin	2.73408e-05	1487
bin	2.7412e-05	1451
bin	2.74832e-05	1409
bin	2.75544e-05	1475
bin	2.76256e-05	1462
bin	2.76968e-05	1452
bin	2.7768e-05	1373
bin	2.78392e-05	1432
bin	2.79104e-05	1384
bin	2.79816e-05	1344
bin	2.80528e-05	1365
bin	2.8124e-05	1384
bin	2.81952e-05	1371
bin	2.82664e-05	1327
bin	2.83376e-05	1319
bin	2.84088e-05	1302
bin	2.848e-05	1286
bin	2.85512e-05	1169
bin	2.86224e-05	1264
bin	2.86936e-05	1171
bin	2.87648e-05	1158
bin	2.8836e-05	1106
bin	2.89072e-05	1105
bin	2.89784e-05	1094
bin	2.90496e-05	1057
bin	2.91208e-05	1016
bin	2.9192e-05	940
bin	2.92632e-05	991
bin	2.93344e-05	862
bin	2.94056e-05	872
bin	2.94768e-05	821
bin	2.9548e-05	786
bin	2.96192e-05	741
bin	2.96904e-05	727
bin	2.97616e-05	733
bin	2.98328e-05	630
bin	2.9904e-05	695
bin	2.99752e-05	639
bin	3.00464e-05	622
bin	3.01176e-05	577
bin	3.01888e-05	593
bin	3.026e-05	554
bin	3.03312e-05	561
bin	3.04024e-05	551
bin	3.04736e-05	518
bin	3.05448e-05	583
bin	3.0616e-05	451
bin	3.06872e-05	500
bin	3.07584e-05	464
bin	3.08296e-05	483
bin	3.09008e-05	406
bin	3.0972e-05	470
bin	3.10432e-05	441
bin	3.11144e-05	440
bin	3.11856e-05	467
bin	3.12568e-05	376
bin	3.1328e-05	450
bin	3.13992e-05	364
bin	3.14704e-05	419
bin	3.15416e-05	385
bin	3.16128e-05	427
bin	3.1684e-05	355
bin	3.17552e-05	385
bin	3.18264e-05	345
bin	3.18976e-05	332
bin	3.19688e-05	341
bin	3.204e-05	287
bin	3.21112e-05	308
bin	3.21824e-05	267
bin	3.22536e-05	310
bin	3.23248e-05	266
bin	3.2396e-05	316
bin	3.24672e-05	254
bin	3.25384e-05	295
bin	3.26096e-05	245
bin	3.26808e-05	242
bin	3.2752e-05	268
bin	3.28232e-05	237
bin	3.28944e-05	264
bin	3.29656e-05	220
bin	3.30368e-05	268
bin	3.3108e-05	211
bin	3.31792e-05	238
bin	3.32504e-05	206
bin	3.33216e-05	238
bin	3.33928e-05	230
bin	3.3464e-05	208
bin	3.35352e-05	197
bin	3.36064e-05	209
bin	3.36776e-05	228
bin	3.37488e-05	185
bin	3.382e-05	214
bin	3.38912e-05	205
bin	3.39624e-05	224
bin	3.40336e-05	166
bin	3.41048e-05	220
bin	3.4176e-05	205
bin	3.42472e-05	182
bin	3.43184e-05	215
bin	3.43896e-05	201
bin	3.44608e-05	218
bin	3.4532e-05	175
bin	3.46032e-05	218
bin	3.46744e-05	197
bin	3.47456e-05	210
bin	3.48168e-05	154
bin	3.4888e-05	204
bin	3.49592e-05	187
bin	3.50304e-05	176
bin	3.51016e-05	185
bin	3.51728e-05	170
bin	3.5244e-05	201
bin	3.53152e-05	145
bin	3.53864e-05	190
bin	3.54576e-05	165
bin	3.55288e-05	180
bin	3.56e-05	28760
statistic Torus3d_bub.timer 	"Life Times"
field count 6291456
field mean 2.8390790309231e-05
field stddev 2.5342609214139e-05
field sum 178.61940803576
field sqrsum 0.0091118195541117
field min 7.33331989e-07
field max 0.000244353332653
bin	-INF	0
bin	0	13980
bin	8.544e-07	82231
bin	1.7088e-06	148043
bin	2.5632e-06	127338
bin	3.4176e-06	121121
bin	4.272e-06	114545
bin	5.1264e-06	144219
bin	5.9808e-06	137492
bin	6.8352e-06	144683
bin	7.6896e-06	150616
bin	8.544e-06	170762
bin	9.3984e-06	154584
bin	1.02528e-05	144225
bin	1.11072e-05	166056
bin	1.19616e-05	142049
bin	1.2816e-05	134769
bin	1.36704e-05	133209
bin	1.45248e-05	137367
bin	1.53792e-05	141488
bin	1.62336e-05	129070
bin	1.7088e-05	129294
bin	1.79424e-05	138236
bin	1.87968e-05	126248
bin	1.96512e-05	119184
bin	2.05056e-05	131274
bin	2.136e-05	117429
bin	2.22144e-05	116313
bin	2.30688e-05	114877
bin	2.39232e-05	116802
bin	2.47776e-05	107400
bin	2.5632e-05	95819
bin	2.64864e-05	91463
bin	2.73408e-05	88844
bin	2.81952e-05	84063
bin	2.90496e-05	78511
bin	2.9904e-05	77450
bin	3.07584e-05	74890
bin	3.16128e-05	61606
bin	3.24672e-05	57558
bin	3.33216e-05	56019
bin	3.4176e-05	53654
bin	3.50304e-05	47897
bin	3.58848e-05	42599
bin	3.67392e-05	37974
bin	3.75936e-05	35408
bin	3.8448e-05	33327
bin	3.93024e-05	30350
bin	4.01568e-05	29188
bin	4.10112e-05	26862
bin	4.18656e-05	26760
bin	4.272e-05	25500
bin	4.35744e-05	27108
bin	4.44288e-05	26915
bin	4.52832e-05	26410
bin	4.61376e-05	27107
bin	4.6992e-05	27626
bin	4.78464e-05	27090
bin	4.87008e-05	26582
bin	4.95552e-05	26827
bin	5.04096e-05	26005
bin	5.1264e-05	25623
bin	5.21184e-05	25216
bin	5.29728e-05	25108
bin	5.38272e-05	24299
bin	5.46816e-05	23758
bin	5.5536e-05	23786
bin	5.63904e-05	23505
bin	5.72448e-05	22721
bin	5.80992e-05	22326
bin	5.89536e-05	22225
bin	5.9808e-05	21469
bin	6.06624e-05	21060
bin	6.15168e-05	20654
bin	6.23712e-05	19972
bin	6.32256e-05	18864
bin	6.408e-05	18305
bin	6.49344e-05	17757
bin	6.57888e-05	17287
bin	6.66432e-05	16450
bin	6.74976e-05	16139
bin	6.8352e-05	15227
bin	6.92064e-05	15024
bin	7.00608e-05	14708
bin	7.09152e-05	14415
bin	7.17696e-05	14139
bin	7.2624e-05	12994
bin	7.34784e-05	13065
bin	7.43328e-05	13337
bin	7.51872e-05	14315
bin	7.60416e-05	14352
bin	7.6896e-05	15228
bin	7.77504e-05	15501
bin	7.86048e-05	15297
bin	7.94592e-05	15408
bin	8.03136e-05	15827
bin	8.1168e-05	16505
bin	8.20224e-05	15919
bin	8.28768e-05	15998
bin	8.37312e-05	15785
bin	8.45856e-05	16084
bin	8.544e-05	15314
bin	8.62944e-05	14864
bin	8.71488e-05	14902
bin	8.80032e-05	13995
bin	8.88576e-05	13286
bin	8.9712e-05	13145
bin	9.05664e-05	12231
bin	9.14208e-05	11175
bin	9.22752e-05	10287
bin	9.31296e-05	9512
bin	9.3984e-05	8472
bin	9.48384e-05	7669
bin	9.56928e-05	7179
bin	9.65472e-05	6474
bin	9.74016e-05	6250
bin	9.8256e-05	5812
bin	9.91104e-05	5791
bin	9.99648e-05	5655
bin	0.0001008192	5719
bin	0.0001016736	5772
bin	0.000102528	5855
bin	0.0001033824	5291
bin	0.0001042368	5616
bin	0.0001050912	5818
bin	0.0001059456	6149
bin	0.0001068	6290
bin	0.0001076544	6320
bin	0.0001085088	6179
bin	0.0001093632	6301
bin	0.0001102176	6213
bin	0.000111072	5919
bin	0.0001119264	5776
bin	0.0001127808	5489
bin	0.0001136352	5121
bin	0.0001144896	4747
bin	0.000115344	4223
bin	0.0001161984	3788
bin	0.0001170528	3414
bin	0.0001179072	2790
bin	0.0001187616	2502
bin	0.000119616	2081
bin	0.0001204704	1834
bin	0.0001213248	1666
bin	0.0001221792	1369
bin	0.0001230336	1046
bin	0.000123888	806
bin	0.0001247424	634
bin	0.0001255968	506
bin	0.0001264512	381
bin	0.0001273056	287
bin	0.00012816	275
bin	0.0001290144	216
bin	0.0001298688	210
bin	0.0001307232	151
bin	0.0001315776	166
bin	0.000132432	155
bin	0.0001332864	114
bin	0.0001341408	118
bin	0.0001349952	107
bin	0.0001358496	96
bin	0.000136704	111
bin	0.0001375584	106
bin	0.0001384128	114
bin	0.0001392672	111
bin	0.0001401216	119
bin	0.000140976	116
bin	0.0001418304	118
bin	0.0001426848	104
bin	0.0001435392	132
bin	0.0001443936	121
bin	0.000145248	114
bin	0.0001461024	96
bin	0.0001469568	86
bin	0.0001478112	100
bin	0.0001486656	104
bin	0.00014952	82
bin	0.0001503744	64
bin	0.0001512288	71
bin	0.0001520832	76
bin	0.0001529376	86
bin	0.000153792	83
bin	0.0001546464	64
bin	0.0001555008	54
bin	0.0001563552	50
bin	0.0001572096	46
bin	0.000158064	38
bin	0.0001589184	30
bin	0.0001597728	29
bin	0.0001606272	42
bin	0.0001614816	26
bin	0.000162336	26
bin	0.0001631904	28
bin	0.0001640448	30
bin	0.0001648992	19
bin	0.0001657536	29
bin	0.000166608	34
bin	0.0001674624	25
bin	0.0001683168	25
bin	0.0001691712	29
bin	0.0001700256	24
bin	0.00017088	29
bin	0.0001717344	30
bin	0.0001725888	35
bin	0.0001734432	24
bin	0.0001742976	22
bin	0.000175152	22
bin	0.0001760064	26
bin	0.0001768608	21
bin	0.0001777152	23
bin	0.0001785696	23
bin	0.000179424	16
bin	0.0001802784	16
bin	0.0001811328	14
bin	0.0001819872	18
bin	0.0001828416	19
bin	0.000183696	18
bin	0.0001845504	19
bin	0.0001854048	27
bin	0.0001862592	24
bin	0.0001871136	20
bin	0.000187968	26
bin	0.0001888224	21
bin	0.0001896768	27
bin	0.0001905312	17
bin	0.0001913856	20
bin	0.00019224	16
bin	0.0001930944	15
bin	0.0001939488	29
bin	0.0001948032	23
bin	0.0001956576	15
bin	0.000196512	20
bin	0.0001973664	21
bin	0.0001982208	15
bin	0.0001990752	14
bin	0.0001999296	16
bin	0.000200784	16
bin	0.0002016384	12
bin	0.0002024928	22
bin	0.0002033472	25
bin	0.0002042016	23
bin	0.000205056	12
bin	0.0002059104	15
bin	0.0002067648	27
bin	0.0002076192	17
bin	0.0002084736	20
bin	0.000209328	15
bin	0.0002101824	17
bin	0.0002110368	7
bin	0.0002118912	6
bin	0.0002127456	14
bin	0.0002136	5
bin	0.0002144544	7
bin	0.0002153088	9
bin	0.0002161632	10
bin	0.0002170176	9
bin	0.000217872	8
bin	0.0002187264	6
bin	0.0002195808	6
bin	0.0002204352	11
bin	0.0002212896	3
bin	0.000222144	13
bin	0.0002229984	11
bin	0.0002238528	9
bin	0.0002247072	6
bin	0.0002255616	4
bin	0.000226416	3
bin	0.0002272704	5
bin	0.0002281248	9
bin	0.0002289792	11
bin	0.0002298336	9
bin	0.000230688	5
bin	0.0002315424	6
bin	0.0002323968	8
bin	0.0002332512	9
bin	0.0002341056	7
bin	0.00023496	6
bin	0.0002358144	5
bin	0.0002366688	5
bin	0.0002375232	1
bin	0.0002383776	1
bin	0.000239232	0
bin	0.0002400864	2
bin	0.0002409408	1
bin	0.0002417952	1
bin	0.0002426496	2
bin	0.000243504	1
bin	0.0002443584	0
bin	0.0002452128	0
bin	0.0002460672	0
bin	0.0002469216	0
bin	0.000247776	0
bin	0.0002486304	0
bin	0.0002494848	0
bin	0.0002503392	0
bin	0.0002511936	0
bin	0.000252048	0
bin	0.0002529024	0
bin	0.0002537568	0
bin	0.0002546112	0
bin	0.0002554656	0
bin	0.00025632	0
bin	0.0002571744	0
bin	0.0002580288	0
bin	0.0002588832	0
bin	0.0002597376	0
bin	0.000260592	0
bin	0.0002614464	0
bin	0.0002623008	0
bin	0.0002631552	0
bin	0.0002640096	0
bin	0.000264864	0
bin	0.0002657184	0
bin	0.0002665728	0
bin	0.0002674272	0
bin	0.0002682816	0
bin	0.000269136	0
bin	0.0002699904	0
bin	0.0002708448	0
bin	0.0002716992	0
bin	0.0002725536	0
bin	0.000273408	0
bin	0.0002742624	0
bin	0.0002751168	0
bin	0.0002759712	0
bin	0.0002768256	0
bin	0.00027768	0
bin	0.0002785344	0
bin	0.0002793888	0
bin	0.0002802432	0
bin	0.0002810976	0
bin	0.000281952	0
bin	0.0002828064	0
bin	0.0002836608	0
bin	0.0002845152	0
bin	0.0002853696	0
bin	0.000286224	0
bin	0.0002870784	0
bin	0.0002879328	0
bin	0.0002887872	0
bin	0.0002896416	0
bin	0.000290496	0
bin	0.0002913504	0
bin	0.0002922048	0
bin	0.0002930592	0
bin	0.0002939136	0
bin	0.000294768	0
bin	0.0002956224	0
bin	0.0002964768	0
bin	0.0002973312	0
bin	0.0002981856	0
bin	0.00029904	0
bin	0.0002998944	0
bin	0.0003007488	0
bin	0.0003016032	0
bin	0.0003024576	0
bin	0.000303312	0
bin	0.0003041664	0
bin	0.0003050208	0
bin	0.0003058752	0
bin	0.0003067296	0
bin	0.000307584	0
bin	0.0003084384	0
bin	0.0003092928	0
bin	0.0003101472	0
bin	0.0003110016	0
bin	0.000311856	0
bin	0.0003127104	0
bin	0.0003135648	0
bin	0.0003144192	0
bin	0.0003152736	0
bin	0.000316128	0
bin	0.0003169824	0
bin	0.0003178368	0
bin	0.0003186912	0
bin	0.0003195456	0
bin	0.0003204	0
bin	0.0003212544	0
bin	0.0003221088	0
bin	0.0003229632	0
bin	0.0003238176	0
bin	0.000324672	0
bin	0.0003255264	0
bin	0.0003263808	0
bin	0.0003272352	0
bin	0.0003280896	0
bin	0.000328944	0
bin	0.0003297984	0
bin	0.0003306528	0
bin	0.0003315072	0
bin	0.0003323616	0
bin	0.000333216	0
bin	0.0003340704	0
bin	0.0003349248	0
bin	0.0003357792	0
bin	0.0003366336	0
bin	0.000337488	0
bin	0.0003383424	0
bin	0.0003391968	0
bin	0.0003400512	0
bin	0.0003409056	0
bin	0.00034176	0
bin	0.0003426144	0
bin	0.0003434688	0
bin	0.0003443232	0
bin	0.0003451776	0
bin	0.000346032	0
bin	0.0003468864	0
bin	0.0003477408	0
bin	0.0003485952	0
bin	0.0003494496	0
bin	0.000350304	0
bin	0.0003511584	0
bin	0.0003520128	0
bin	0.0003528672	0
bin	0.0003537216	0
bin	0.000354576	0
bin	0.0003554304	0
bin	0.0003562848	0
bin	0.0003571392	0
bin	0.0003579936	0
bin	0.000358848	0
bin	0.0003597024	0
bin	0.0003605568	0
bin	0.0003614112	0
bin	0.0003622656	0
bin	0.00036312	0
bin	0.0003639744	0
bin	0.0003648288	0
bin	0.0003656832	0
bin	0.0003665376	0
bin	0.000367392	0
bin	0.0003682464	0
bin	0.0003691008	0
bin	0.0003699552	0
bin	0.0003708096	0
bin	0.000371664	0
bin	0.0003725184	0
bin	0.0003733728	0
bin	0.0003742272	0
bin	0.0003750816	0
bin	0.000375936	0
bin	0.0003767904	0
bin	0.0003776448	0
bin	0.0003784992	0
bin	0.0003793536	0
bin	0.000380208	0
bin	0.0003810624	0
bin	0.0003819168	0
bin	0.0003827712	0
bin	0.0003836256	0
bin	0.00038448	0
bin	0.0003853344	0
bin	0.0003861888	0
bin	0.0003870432	0
bin	0.0003878976	0
bin	0.000388752	0
bin	0.0003896064	0
bin	0.0003904608	0
bin	0.0003913152	0
bin	0.0003921696	0
bin	0.000393024	0
bin	0.0003938784	0
bin	0.0003947328	0
bin	0.0003955872	0
bin	0.0003964416	0
bin	0.000397296	0
bin	0.0003981504	0
bin	0.0003990048	0
bin	0.0003998592	0
bin	0.0004007136	0
bin	0.000401568	0
bin	0.0004024224	0
bin	0.0004032768	0
bin	0.0004041312	0
bin	0.0004049856	0
bin	0.00040584	0
bin	0.0004066944	0
bin	0.0004075488	0
bin	0.0004084032	0
bin	0.0004092576	0
bin	0.000410112	0
bin	0.0004109664	0
bin	0.0004118208	0
bin	0.0004126752	0
bin	0.0004135296	0
bin	0.000414384	0
bin	0.0004152384	0
bin	0.0004160928	0
bin	0.0004169472	0
bin	0.0004178016	0
bin	0.000418656	0
bin	0.0004195104	0
bin	0.0004203648	0
bin	0.0004212192	0
bin	0.0004220736	0
bin	0.000422928	0
bin	0.0004237824	0
bin	0.0004246368	0
bin	0.0004254912	0
bin	0.0004263456	0
bin	0.0004272	0
