version 2
run Butterfly-87-20120709-12:11:27-22838
attr alg 3
attr buf 8
attr configname Butterfly
attr datetime 20120709-12:11:27
attr delta 2
attr experiment Butterfly
attr ext true
attr inifile altro.ini
attr iterationvars "$buf=8, $ext=true, $ofedge=2, $delta=2, $alg=3"
attr iterationvars2 "$buf=8, $ext=true, $ofedge=2, $delta=2, $alg=3, $repetition=0"
attr measurement "$buf=8, $ext=true, $ofedge=2, $delta=2, $alg=3"
attr network Torus3d_bub
attr ofedge 2
attr processid 22838
attr repetition 0
attr replication #0
attr resultdir altro-results
attr runnumber 87
attr seedset 87

scalar . 	alg 	3
scalar . 	buf 	8
scalar . 	delta 	2
scalar . 	ofedge 	2
scalar Torus3d_bub.timer 	#endTime 	0.000977968331828
scalar Torus3d_bub.timer 	#totalHops 	46275887
scalar Torus3d_bub.timer 	#totalPacks 	6291456
scalar Torus3d_bub.timer 	#totalDerouted 	3889265
scalar Torus3d_bub.timer 	#totalOutFlanked 	3703623
scalar Torus3d_bub.timer 	#totalCQRed 	185642
scalar Torus3d_bub.timer 	#LB 	0.000786432
scalar Torus3d_bub.timer 	#ratio 	0.80414873816008
statistic Torus3d_bub.timer 	"Hop Times"
field count 6291456
field mean 5.6630261729914e-05
field stddev 7.8139122906495e-05
field sum 356.28679994224
field sqrsum 0.058590493262792
field min 4.84166666e-07
field max 0.0006757073322
bin	-INF	0
bin	0	0
bin	7.12e-08	0
bin	1.424e-07	0
bin	2.136e-07	0
bin	2.848e-07	0
bin	3.56e-07	0
bin	4.272e-07	2048
bin	4.984e-07	1
bin	5.696e-07	2050
bin	6.408e-07	2
bin	7.12e-07	8198
bin	7.832e-07	3030
bin	8.544e-07	4161
bin	9.256e-07	6442
bin	9.968e-07	2374
bin	1.068e-06	5257
bin	1.1392e-06	4822
bin	1.2104e-06	9993
bin	1.2816e-06	2523
bin	1.3528e-06	3585
bin	1.424e-06	9304
bin	1.4952e-06	13295
bin	1.5664e-06	12105
bin	1.6376e-06	4880
bin	1.7088e-06	15199
bin	1.78e-06	10068
bin	1.8512e-06	16027
bin	1.9224e-06	9395
bin	1.9936e-06	15983
bin	2.0648e-06	12569
bin	2.136e-06	9079
bin	2.2072e-06	9727
bin	2.2784e-06	14260
bin	2.3496e-06	9120
bin	2.4208e-06	9206
bin	2.492e-06	15444
bin	2.5632e-06	10755
bin	2.6344e-06	7222
bin	2.7056e-06	7887
bin	2.7768e-06	12457
bin	2.848e-06	7627
bin	2.9192e-06	5297
bin	2.9904e-06	5407
bin	3.0616e-06	9393
bin	3.1328e-06	7070
bin	3.204e-06	5236
bin	3.2752e-06	11525
bin	3.3464e-06	5372
bin	3.4176e-06	8387
bin	3.4888e-06	5289
bin	3.56e-06	9667
bin	3.6312e-06	6255
bin	3.7024e-06	5817
bin	3.7736e-06	6242
bin	3.8448e-06	9793
bin	3.916e-06	5955
bin	3.9872e-06	5593
bin	4.0584e-06	11071
bin	4.1296e-06	7121
bin	4.2008e-06	6083
bin	4.272e-06	6220
bin	4.3432e-06	10112
bin	4.4144e-06	7775
bin	4.4856e-06	5929
bin	4.5568e-06	7004
bin	4.628e-06	10168
bin	4.6992e-06	8435
bin	4.7704e-06	6348
bin	4.8416e-06	10227
bin	4.9128e-06	6069
bin	4.984e-06	7811
bin	5.0552e-06	6082
bin	5.1264e-06	10049
bin	5.1976e-06	5955
bin	5.2688e-06	5914
bin	5.34e-06	7751
bin	5.4112e-06	9819
bin	5.4824e-06	7810
bin	5.5536e-06	5574
bin	5.6248e-06	9704
bin	5.696e-06	5716
bin	5.7672e-06	5480
bin	5.8384e-06	5751
bin	5.9096e-06	9710
bin	5.9808e-06	5682
bin	6.052e-06	5603
bin	6.1232e-06	5689
bin	6.1944e-06	9857
bin	6.2656e-06	5628
bin	6.3368e-06	5652
bin	6.408e-06	9699
bin	6.4792e-06	5664
bin	6.5504e-06	5580
bin	6.6216e-06	5535
bin	6.6928e-06	9766
bin	6.764e-06	5610
bin	6.8352e-06	5648
bin	6.9064e-06	5661
bin	6.9776e-06	9948
bin	7.0488e-06	5722
bin	7.12e-06	5733
bin	7.1912e-06	9712
bin	7.2624e-06	5771
bin	7.3336e-06	5576
bin	7.4048e-06	5682
bin	7.476e-06	9734
bin	7.5472e-06	5726
bin	7.6184e-06	5625
bin	7.6896e-06	5678
bin	7.7608e-06	9758
bin	7.832e-06	5738
bin	7.9032e-06	5743
bin	7.9744e-06	9691
bin	8.0456e-06	5713
bin	8.1168e-06	5679
bin	8.188e-06	5690
bin	8.2592e-06	8770
bin	8.3304e-06	5881
bin	8.4016e-06	5606
bin	8.4728e-06	5536
bin	8.544e-06	9768
bin	8.6152e-06	5808
bin	8.6864e-06	5766
bin	8.7576e-06	9802
bin	8.8288e-06	5890
bin	8.9e-06	5665
bin	8.9712e-06	5714
bin	9.0424e-06	9992
bin	9.1136e-06	5779
bin	9.1848e-06	5754
bin	9.256e-06	5724
bin	9.3272e-06	8000
bin	9.3984e-06	5907
bin	9.4696e-06	5816
bin	9.5408e-06	9866
bin	9.612e-06	5952
bin	9.6832e-06	5701
bin	9.7544e-06	5774
bin	9.8256e-06	10065
bin	9.8968e-06	5981
bin	9.968e-06	5939
bin	1.00392e-05	5823
bin	1.01104e-05	6008
bin	1.01816e-05	5923
bin	1.02528e-05	5955
bin	1.0324e-05	9992
bin	1.03952e-05	5977
bin	1.04664e-05	5776
bin	1.05376e-05	5923
bin	1.06088e-05	8190
bin	1.068e-05	6102
bin	1.07512e-05	5990
bin	1.08224e-05	5853
bin	1.08936e-05	8068
bin	1.09648e-05	5810
bin	1.1036e-05	5967
bin	1.11072e-05	8096
bin	1.11784e-05	6103
bin	1.12496e-05	5968
bin	1.13208e-05	6107
bin	1.1392e-05	10233
bin	1.14632e-05	6167
bin	1.15344e-05	6114
bin	1.16056e-05	6099
bin	1.16768e-05	10317
bin	1.1748e-05	6077
bin	1.18192e-05	6103
bin	1.18904e-05	10180
bin	1.19616e-05	6108
bin	1.20328e-05	5949
bin	1.2104e-05	5855
bin	1.21752e-05	10102
bin	1.22464e-05	6143
bin	1.23176e-05	6135
bin	1.23888e-05	5878
bin	1.246e-05	10340
bin	1.25312e-05	6058
bin	1.26024e-05	6118
bin	1.26736e-05	8131
bin	1.27448e-05	6218
bin	1.2816e-05	6106
bin	1.28872e-05	5947
bin	1.29584e-05	6338
bin	1.30296e-05	6239
bin	1.31008e-05	6035
bin	1.3172e-05	6082
bin	1.32432e-05	6293
bin	1.33144e-05	6247
bin	1.33856e-05	6070
bin	1.34568e-05	6007
bin	1.3528e-05	6158
bin	1.35992e-05	6106
bin	1.36704e-05	6013
bin	1.37416e-05	6080
bin	1.38128e-05	6079
bin	1.3884e-05	6077
bin	1.39552e-05	6032
bin	1.40264e-05	6188
bin	1.40976e-05	6146
bin	1.41688e-05	6009
bin	1.424e-05	6144
bin	1.43112e-05	6267
bin	1.43824e-05	6077
bin	1.44536e-05	6064
bin	1.45248e-05	6108
bin	1.4596e-05	6118
bin	1.46672e-05	6064
bin	1.47384e-05	5931
bin	1.48096e-05	6378
bin	1.48808e-05	6094
bin	1.4952e-05	6039
bin	1.50232e-05	6288
bin	1.50944e-05	6406
bin	1.51656e-05	6045
bin	1.52368e-05	6037
bin	1.5308e-05	6229
bin	1.53792e-05	6277
bin	1.54504e-05	6164
bin	1.55216e-05	6178
bin	1.55928e-05	6347
bin	1.5664e-05	6269
bin	1.57352e-05	6228
bin	1.58064e-05	6188
bin	1.58776e-05	6342
bin	1.59488e-05	6242
bin	1.602e-05	6160
bin	1.60912e-05	6352
bin	1.61624e-05	6499
bin	1.62336e-05	6385
bin	1.63048e-05	6345
bin	1.6376e-05	6402
bin	1.64472e-05	6331
bin	1.65184e-05	6231
bin	1.65896e-05	6589
bin	1.66608e-05	6543
bin	1.6732e-05	6546
bin	1.68032e-05	6423
bin	1.68744e-05	6296
bin	1.69456e-05	6512
bin	1.70168e-05	6449
bin	1.7088e-05	6535
bin	1.71592e-05	6415
bin	1.72304e-05	6589
bin	1.73016e-05	6491
bin	1.73728e-05	6549
bin	1.7444e-05	6474
bin	1.75152e-05	6399
bin	1.75864e-05	6711
bin	1.76576e-05	6463
bin	1.77288e-05	6722
bin	1.78e-05	6574
bin	1.78712e-05	6505
bin	1.79424e-05	6494
bin	1.80136e-05	6422
bin	1.80848e-05	6520
bin	1.8156e-05	6675
bin	1.82272e-05	6583
bin	1.82984e-05	6378
bin	1.83696e-05	6582
bin	1.84408e-05	6337
bin	1.8512e-05	6701
bin	1.85832e-05	6519
bin	1.86544e-05	6610
bin	1.87256e-05	6548
bin	1.87968e-05	6595
bin	1.8868e-05	6559
bin	1.89392e-05	6668
bin	1.90104e-05	6565
bin	1.90816e-05	6528
bin	1.91528e-05	6627
bin	1.9224e-05	6521
bin	1.92952e-05	6632
bin	1.93664e-05	6493
bin	1.94376e-05	6653
bin	1.95088e-05	6610
bin	1.958e-05	6614
bin	1.96512e-05	6487
bin	1.97224e-05	6616
bin	1.97936e-05	6676
bin	1.98648e-05	6550
bin	1.9936e-05	6581
bin	2.00072e-05	6595
bin	2.00784e-05	6723
bin	2.01496e-05	6478
bin	2.02208e-05	6651
bin	2.0292e-05	6724
bin	2.03632e-05	6456
bin	2.04344e-05	6442
bin	2.05056e-05	6686
bin	2.05768e-05	6720
bin	2.0648e-05	6621
bin	2.07192e-05	6674
bin	2.07904e-05	6544
bin	2.08616e-05	6691
bin	2.09328e-05	6633
bin	2.1004e-05	6807
bin	2.10752e-05	6723
bin	2.11464e-05	6670
bin	2.12176e-05	6759
bin	2.12888e-05	6673
bin	2.136e-05	6945
bin	2.14312e-05	6773
bin	2.15024e-05	6731
bin	2.15736e-05	6560
bin	2.16448e-05	6759
bin	2.1716e-05	6600
bin	2.17872e-05	6737
bin	2.18584e-05	6630
bin	2.19296e-05	6787
bin	2.20008e-05	6638
bin	2.2072e-05	6805
bin	2.21432e-05	6699
bin	2.22144e-05	6550
bin	2.22856e-05	6856
bin	2.23568e-05	6662
bin	2.2428e-05	6785
bin	2.24992e-05	6568
bin	2.25704e-05	6824
bin	2.26416e-05	6461
bin	2.27128e-05	6785
bin	2.2784e-05	6676
bin	2.28552e-05	6759
bin	2.29264e-05	6686
bin	2.29976e-05	6532
bin	2.30688e-05	6720
bin	2.314e-05	6749
bin	2.32112e-05	6790
bin	2.32824e-05	6707
bin	2.33536e-05	6783
bin	2.34248e-05	6553
bin	2.3496e-05	6644
bin	2.35672e-05	6627
bin	2.36384e-05	6883
bin	2.37096e-05	6765
bin	2.37808e-05	6599
bin	2.3852e-05	7033
bin	2.39232e-05	6639
bin	2.39944e-05	6842
bin	2.40656e-05	6620
bin	2.41368e-05	6818
bin	2.4208e-05	6835
bin	2.42792e-05	6706
bin	2.43504e-05	6762
bin	2.44216e-05	6880
bin	2.44928e-05	6689
bin	2.4564e-05	6745
bin	2.46352e-05	6897
bin	2.47064e-05	6698
bin	2.47776e-05	7006
bin	2.48488e-05	6759
bin	2.492e-05	6835
bin	2.49912e-05	6784
bin	2.50624e-05	6738
bin	2.51336e-05	6629
bin	2.52048e-05	6872
bin	2.5276e-05	6859
bin	2.53472e-05	6731
bin	2.54184e-05	6953
bin	2.54896e-05	6659
bin	2.55608e-05	6997
bin	2.5632e-05	6597
bin	2.57032e-05	6808
bin	2.57744e-05	6677
bin	2.58456e-05	6643
bin	2.59168e-05	6636
bin	2.5988e-05	6810
bin	2.60592e-05	6798
bin	2.61304e-05	6638
bin	2.62016e-05	6802
bin	2.62728e-05	6498
bin	2.6344e-05	6827
bin	2.64152e-05	6640
bin	2.64864e-05	6871
bin	2.65576e-05	6752
bin	2.66288e-05	6764
bin	2.67e-05	6667
bin	2.67712e-05	6806
bin	2.68424e-05	6742
bin	2.69136e-05	6607
bin	2.69848e-05	6923
bin	2.7056e-05	6627
bin	2.71272e-05	6940
bin	2.71984e-05	6637
bin	2.72696e-05	6783
bin	2.73408e-05	6869
bin	2.7412e-05	6734
bin	2.74832e-05	6717
bin	2.75544e-05	6627
bin	2.76256e-05	6660
bin	2.76968e-05	6561
bin	2.7768e-05	6822
bin	2.78392e-05	6655
bin	2.79104e-05	6824
bin	2.79816e-05	6663
bin	2.80528e-05	6907
bin	2.8124e-05	6806
bin	2.81952e-05	6841
bin	2.82664e-05	6717
bin	2.83376e-05	6745
bin	2.84088e-05	6786
bin	2.848e-05	6789
bin	2.85512e-05	6992
bin	2.86224e-05	6662
bin	2.86936e-05	6883
bin	2.87648e-05	6626
bin	2.8836e-05	6910
bin	2.89072e-05	6722
bin	2.89784e-05	6878
bin	2.90496e-05	6789
bin	2.91208e-05	6781
bin	2.9192e-05	6820
bin	2.92632e-05	6812
bin	2.93344e-05	6975
bin	2.94056e-05	6575
bin	2.94768e-05	7043
bin	2.9548e-05	6597
bin	2.96192e-05	6938
bin	2.96904e-05	6588
bin	2.97616e-05	6685
bin	2.98328e-05	6627
bin	2.9904e-05	6669
bin	2.99752e-05	6687
bin	3.00464e-05	6742
bin	3.01176e-05	7008
bin	3.01888e-05	6693
bin	3.026e-05	6934
bin	3.03312e-05	6655
bin	3.04024e-05	6932
bin	3.04736e-05	6720
bin	3.05448e-05	6791
bin	3.0616e-05	6825
bin	3.06872e-05	6703
bin	3.07584e-05	6877
bin	3.08296e-05	6837
bin	3.09008e-05	6724
bin	3.0972e-05	6595
bin	3.10432e-05	6968
bin	3.11144e-05	6743
bin	3.11856e-05	6942
bin	3.12568e-05	6782
bin	3.1328e-05	6904
bin	3.13992e-05	6864
bin	3.14704e-05	6716
bin	3.15416e-05	6886
bin	3.16128e-05	6748
bin	3.1684e-05	6937
bin	3.17552e-05	6675
bin	3.18264e-05	7004
bin	3.18976e-05	6710
bin	3.19688e-05	6940
bin	3.204e-05	6708
bin	3.21112e-05	6708
bin	3.21824e-05	6876
bin	3.22536e-05	6743
bin	3.23248e-05	6806
bin	3.2396e-05	6750
bin	3.24672e-05	6948
bin	3.25384e-05	6699
bin	3.26096e-05	6803
bin	3.26808e-05	6884
bin	3.2752e-05	6712
bin	3.28232e-05	6665
bin	3.28944e-05	6870
bin	3.29656e-05	6831
bin	3.30368e-05	6806
bin	3.3108e-05	6847
bin	3.31792e-05	6784
bin	3.32504e-05	7185
bin	3.33216e-05	6627
bin	3.33928e-05	7125
bin	3.3464e-05	6762
bin	3.35352e-05	6898
bin	3.36064e-05	6770
bin	3.36776e-05	6798
bin	3.37488e-05	6866
bin	3.382e-05	6710
bin	3.38912e-05	6804
bin	3.39624e-05	6846
bin	3.40336e-05	6886
bin	3.41048e-05	6750
bin	3.4176e-05	6964
bin	3.42472e-05	6861
bin	3.43184e-05	6866
bin	3.43896e-05	6800
bin	3.44608e-05	6944
bin	3.4532e-05	6890
bin	3.46032e-05	6869
bin	3.46744e-05	6938
bin	3.47456e-05	6878
bin	3.48168e-05	6969
bin	3.4888e-05	6665
bin	3.49592e-05	7087
bin	3.50304e-05	6705
bin	3.51016e-05	6750
bin	3.51728e-05	6705
bin	3.5244e-05	6665
bin	3.53152e-05	6695
bin	3.53864e-05	6836
bin	3.54576e-05	6756
bin	3.55288e-05	6668
bin	3.56e-05	2911968
statistic Torus3d_bub.timer 	"Life Times"
field count 6291456
field mean 0.00025251155574946
field stddev 0.00015444838069814
field sum 1588.6653424893
field sqrsum 0.55123462667581
field min 6.50333311e-07
field max 0.000805214333311
bin	-INF	0
bin	0	4101
bin	8.544e-07	20548
bin	1.7088e-06	24705
bin	2.5632e-06	18680
bin	3.4176e-06	17782
bin	4.272e-06	23061
bin	5.1264e-06	27259
bin	5.9808e-06	19271
bin	6.8352e-06	18413
bin	7.6896e-06	12359
bin	8.544e-06	26064
bin	9.3984e-06	19982
bin	1.02528e-05	26347
bin	1.11072e-05	32855
bin	1.19616e-05	26817
bin	1.2816e-05	14995
bin	1.36704e-05	14952
bin	1.45248e-05	11448
bin	1.53792e-05	12528
bin	1.62336e-05	12551
bin	1.7088e-05	12171
bin	1.79424e-05	9393
bin	1.87968e-05	9303
bin	1.96512e-05	11574
bin	2.05056e-05	9984
bin	2.136e-05	9081
bin	2.22144e-05	8687
bin	2.30688e-05	9016
bin	2.39232e-05	9872
bin	2.47776e-05	10462
bin	2.5632e-05	9934
bin	2.64864e-05	10011
bin	2.73408e-05	11169
bin	2.81952e-05	10588
bin	2.90496e-05	10529
bin	2.9904e-05	10067
bin	3.07584e-05	10170
bin	3.16128e-05	9861
bin	3.24672e-05	10496
bin	3.33216e-05	10082
bin	3.4176e-05	10233
bin	3.50304e-05	10001
bin	3.58848e-05	10685
bin	3.67392e-05	10102
bin	3.75936e-05	10234
bin	3.8448e-05	10638
bin	3.93024e-05	10167
bin	4.01568e-05	10305
bin	4.10112e-05	10255
bin	4.18656e-05	10531
bin	4.272e-05	10227
bin	4.35744e-05	10364
bin	4.44288e-05	10283
bin	4.52832e-05	10204
bin	4.61376e-05	10071
bin	4.6992e-05	10119
bin	4.78464e-05	10079
bin	4.87008e-05	10139
bin	4.95552e-05	10504
bin	5.04096e-05	10387
bin	5.1264e-05	10493
bin	5.21184e-05	10233
bin	5.29728e-05	10378
bin	5.38272e-05	10493
bin	5.46816e-05	10389
bin	5.5536e-05	10760
bin	5.63904e-05	10987
bin	5.72448e-05	10717
bin	5.80992e-05	10622
bin	5.89536e-05	10633
bin	5.9808e-05	10777
bin	6.06624e-05	10496
bin	6.15168e-05	10484
bin	6.23712e-05	10491
bin	6.32256e-05	10285
bin	6.408e-05	10170
bin	6.49344e-05	10162
bin	6.57888e-05	10375
bin	6.66432e-05	10236
bin	6.74976e-05	9868
bin	6.8352e-05	9908
bin	6.92064e-05	10055
bin	7.00608e-05	9978
bin	7.09152e-05	10118
bin	7.17696e-05	9935
bin	7.2624e-05	9980
bin	7.34784e-05	9834
bin	7.43328e-05	9842
bin	7.51872e-05	9866
bin	7.60416e-05	9656
bin	7.6896e-05	9642
bin	7.77504e-05	9733
bin	7.86048e-05	9684
bin	7.94592e-05	9603
bin	8.03136e-05	9506
bin	8.1168e-05	9489
bin	8.20224e-05	9608
bin	8.28768e-05	9532
bin	8.37312e-05	9523
bin	8.45856e-05	9361
bin	8.544e-05	9348
bin	8.62944e-05	9189
bin	8.71488e-05	9285
bin	8.80032e-05	9340
bin	8.88576e-05	9196
bin	8.9712e-05	9231
bin	9.05664e-05	9203
bin	9.14208e-05	9188
bin	9.22752e-05	9167
bin	9.31296e-05	9034
bin	9.3984e-05	9278
bin	9.48384e-05	8966
bin	9.56928e-05	9127
bin	9.65472e-05	9125
bin	9.74016e-05	9155
bin	9.8256e-05	9027
bin	9.91104e-05	9048
bin	9.99648e-05	8986
bin	0.0001008192	9018
bin	0.0001016736	8915
bin	0.000102528	9013
bin	0.0001033824	8911
bin	0.0001042368	8863
bin	0.0001050912	8994
bin	0.0001059456	9082
bin	0.0001068	9112
bin	0.0001076544	8890
bin	0.0001085088	9165
bin	0.0001093632	9081
bin	0.0001102176	9144
bin	0.000111072	9038
bin	0.0001119264	9092
bin	0.0001127808	9176
bin	0.0001136352	9099
bin	0.0001144896	9189
bin	0.000115344	9155
bin	0.0001161984	8984
bin	0.0001170528	9130
bin	0.0001179072	9163
bin	0.0001187616	9114
bin	0.000119616	9303
bin	0.0001204704	9138
bin	0.0001213248	9316
bin	0.0001221792	9290
bin	0.0001230336	9246
bin	0.000123888	9212
bin	0.0001247424	9245
bin	0.0001255968	9236
bin	0.0001264512	9258
bin	0.0001273056	9320
bin	0.00012816	9187
bin	0.0001290144	9329
bin	0.0001298688	9301
bin	0.0001307232	9205
bin	0.0001315776	9262
bin	0.000132432	9353
bin	0.0001332864	9536
bin	0.0001341408	9430
bin	0.0001349952	9329
bin	0.0001358496	9598
bin	0.000136704	9629
bin	0.0001375584	9575
bin	0.0001384128	9663
bin	0.0001392672	9635
bin	0.0001401216	9706
bin	0.000140976	9635
bin	0.0001418304	9643
bin	0.0001426848	9522
bin	0.0001435392	9603
bin	0.0001443936	9501
bin	0.000145248	9509
bin	0.0001461024	9519
bin	0.0001469568	9573
bin	0.0001478112	9696
bin	0.0001486656	9771
bin	0.00014952	9814
bin	0.0001503744	9687
bin	0.0001512288	9487
bin	0.0001520832	9554
bin	0.0001529376	9660
bin	0.000153792	9545
bin	0.0001546464	9556
bin	0.0001555008	9765
bin	0.0001563552	9642
bin	0.0001572096	9413
bin	0.000158064	9504
bin	0.0001589184	9564
bin	0.0001597728	9657
bin	0.0001606272	9932
bin	0.0001614816	9955
bin	0.000162336	9691
bin	0.0001631904	9803
bin	0.0001640448	10091
bin	0.0001648992	10145
bin	0.0001657536	10105
bin	0.000166608	10185
bin	0.0001674624	10044
bin	0.0001683168	10105
bin	0.0001691712	10343
bin	0.0001700256	10315
bin	0.00017088	10088
bin	0.0001717344	10384
bin	0.0001725888	10337
bin	0.0001734432	10165
bin	0.0001742976	9981
bin	0.000175152	10148
bin	0.0001760064	10294
bin	0.0001768608	10277
bin	0.0001777152	10332
bin	0.0001785696	10454
bin	0.000179424	10324
bin	0.0001802784	10535
bin	0.0001811328	10511
bin	0.0001819872	10544
bin	0.0001828416	10382
bin	0.000183696	10615
bin	0.0001845504	10468
bin	0.0001854048	10594
bin	0.0001862592	10529
bin	0.0001871136	10565
bin	0.000187968	10557
bin	0.0001888224	10586
bin	0.0001896768	10665
bin	0.0001905312	10722
bin	0.0001913856	10671
bin	0.00019224	10617
bin	0.0001930944	10532
bin	0.0001939488	10478
bin	0.0001948032	10477
bin	0.0001956576	10628
bin	0.000196512	10766
bin	0.0001973664	10738
bin	0.0001982208	10573
bin	0.0001990752	10797
bin	0.0001999296	10866
bin	0.000200784	10919
bin	0.0002016384	10814
bin	0.0002024928	10754
bin	0.0002033472	11009
bin	0.0002042016	11157
bin	0.000205056	11155
bin	0.0002059104	10917
bin	0.0002067648	10960
bin	0.0002076192	11014
bin	0.0002084736	11001
bin	0.000209328	11208
bin	0.0002101824	11137
bin	0.0002110368	11155
bin	0.0002118912	11054
bin	0.0002127456	11257
bin	0.0002136	11236
bin	0.0002144544	11015
bin	0.0002153088	10950
bin	0.0002161632	11038
bin	0.0002170176	11303
bin	0.000217872	11394
bin	0.0002187264	11200
bin	0.0002195808	11204
bin	0.0002204352	11069
bin	0.0002212896	11151
bin	0.000222144	11132
bin	0.0002229984	11134
bin	0.0002238528	10947
bin	0.0002247072	10780
bin	0.0002255616	11104
bin	0.000226416	11063
bin	0.0002272704	10934
bin	0.0002281248	10802
bin	0.0002289792	10847
bin	0.0002298336	10937
bin	0.000230688	11005
bin	0.0002315424	10926
bin	0.0002323968	10869
bin	0.0002332512	10873
bin	0.0002341056	10775
bin	0.00023496	10884
bin	0.0002358144	10882
bin	0.0002366688	10881
bin	0.0002375232	10869
bin	0.0002383776	10811
bin	0.000239232	10710
bin	0.0002400864	10637
bin	0.0002409408	10783
bin	0.0002417952	10763
bin	0.0002426496	10700
bin	0.000243504	10740
bin	0.0002443584	10725
bin	0.0002452128	10784
bin	0.0002460672	10876
bin	0.0002469216	10778
bin	0.000247776	10833
bin	0.0002486304	10930
bin	0.0002494848	10774
bin	0.0002503392	10785
bin	0.0002511936	10788
bin	0.000252048	10915
bin	0.0002529024	10773
bin	0.0002537568	10982
bin	0.0002546112	10981
bin	0.0002554656	11020
bin	0.00025632	10947
bin	0.0002571744	10820
bin	0.0002580288	10919
bin	0.0002588832	10834
bin	0.0002597376	10924
bin	0.000260592	10900
bin	0.0002614464	10973
bin	0.0002623008	10790
bin	0.0002631552	11000
bin	0.0002640096	10806
bin	0.000264864	10988
bin	0.0002657184	10960
bin	0.0002665728	10807
bin	0.0002674272	10899
bin	0.0002682816	10902
bin	0.000269136	10851
bin	0.0002699904	10838
bin	0.0002708448	10802
bin	0.0002716992	10773
bin	0.0002725536	11016
bin	0.000273408	10860
bin	0.0002742624	10821
bin	0.0002751168	10729
bin	0.0002759712	10639
bin	0.0002768256	10789
bin	0.00027768	10854
bin	0.0002785344	10674
bin	0.0002793888	10707
bin	0.0002802432	10737
bin	0.0002810976	10836
bin	0.000281952	10703
bin	0.0002828064	10858
bin	0.0002836608	10617
bin	0.0002845152	10563
bin	0.0002853696	10480
bin	0.000286224	10822
bin	0.0002870784	10511
bin	0.0002879328	10620
bin	0.0002887872	10504
bin	0.0002896416	10601
bin	0.000290496	10606
bin	0.0002913504	10738
bin	0.0002922048	10704
bin	0.0002930592	10762
bin	0.0002939136	10618
bin	0.000294768	10472
bin	0.0002956224	10552
bin	0.0002964768	10531
bin	0.0002973312	10582
bin	0.0002981856	10453
bin	0.00029904	10483
bin	0.0002998944	10462
bin	0.0003007488	10707
bin	0.0003016032	10585
bin	0.0003024576	10607
bin	0.000303312	10558
bin	0.0003041664	10412
bin	0.0003050208	10453
bin	0.0003058752	10550
bin	0.0003067296	10498
bin	0.000307584	10472
bin	0.0003084384	10469
bin	0.0003092928	10341
bin	0.0003101472	10349
bin	0.0003110016	10390
bin	0.000311856	10281
bin	0.0003127104	10334
bin	0.0003135648	10307
bin	0.0003144192	10204
bin	0.0003152736	10149
bin	0.000316128	10102
bin	0.0003169824	10075
bin	0.0003178368	10045
bin	0.0003186912	10187
bin	0.0003195456	9870
bin	0.0003204	9996
bin	0.0003212544	10175
bin	0.0003221088	10079
bin	0.0003229632	10042
bin	0.0003238176	10119
bin	0.000324672	9787
bin	0.0003255264	9857
bin	0.0003263808	9961
bin	0.0003272352	10021
bin	0.0003280896	9950
bin	0.000328944	10011
bin	0.0003297984	9991
bin	0.0003306528	10219
bin	0.0003315072	10073
bin	0.0003323616	10225
bin	0.000333216	10054
bin	0.0003340704	10132
bin	0.0003349248	10009
bin	0.0003357792	10057
bin	0.0003366336	10088
bin	0.000337488	10279
bin	0.0003383424	10195
bin	0.0003391968	10200
bin	0.0003400512	10264
bin	0.0003409056	10054
bin	0.00034176	10110
bin	0.0003426144	10199
bin	0.0003434688	10068
bin	0.0003443232	9979
bin	0.0003451776	10023
bin	0.000346032	9980
bin	0.0003468864	10036
bin	0.0003477408	10230
bin	0.0003485952	10072
bin	0.0003494496	10193
bin	0.000350304	10122
bin	0.0003511584	10181
bin	0.0003520128	10191
bin	0.0003528672	10070
bin	0.0003537216	10202
bin	0.000354576	10184
bin	0.0003554304	10097
bin	0.0003562848	10073
bin	0.0003571392	10028
bin	0.0003579936	10116
bin	0.000358848	10049
bin	0.0003597024	10194
bin	0.0003605568	10137
bin	0.0003614112	10400
bin	0.0003622656	10210
bin	0.00036312	10132
bin	0.0003639744	10138
bin	0.0003648288	10115
bin	0.0003656832	10154
bin	0.0003665376	10094
bin	0.000367392	10225
bin	0.0003682464	10159
bin	0.0003691008	10240
bin	0.0003699552	10027
bin	0.0003708096	10199
bin	0.000371664	10092
bin	0.0003725184	10134
bin	0.0003733728	10115
bin	0.0003742272	9964
bin	0.0003750816	10134
bin	0.000375936	10204
bin	0.0003767904	10122
bin	0.0003776448	10149
bin	0.0003784992	10260
bin	0.0003793536	10281
bin	0.000380208	10355
bin	0.0003810624	10098
bin	0.0003819168	10264
bin	0.0003827712	10333
bin	0.0003836256	10113
bin	0.00038448	10273
bin	0.0003853344	10170
bin	0.0003861888	10128
bin	0.0003870432	9944
bin	0.0003878976	10253
bin	0.000388752	10184
bin	0.0003896064	10171
bin	0.0003904608	10078
bin	0.0003913152	10138
bin	0.0003921696	10194
bin	0.000393024	10136
bin	0.0003938784	10169
bin	0.0003947328	9950
bin	0.0003955872	10064
bin	0.0003964416	10224
bin	0.000397296	9996
bin	0.0003981504	10047
bin	0.0003990048	10350
bin	0.0003998592	10019
bin	0.0004007136	10259
bin	0.000401568	10197
bin	0.0004024224	10171
bin	0.0004032768	10148
bin	0.0004041312	10092
bin	0.0004049856	10100
bin	0.00040584	10186
bin	0.0004066944	10175
bin	0.0004075488	10192
bin	0.0004084032	10100
bin	0.0004092576	10000
bin	0.000410112	10252
bin	0.0004109664	10129
bin	0.0004118208	10018
bin	0.0004126752	9980
bin	0.0004135296	9986
bin	0.000414384	10084
bin	0.0004152384	9978
bin	0.0004160928	10077
bin	0.0004169472	10074
bin	0.0004178016	10154
bin	0.000418656	10280
bin	0.0004195104	10224
bin	0.0004203648	10095
bin	0.0004212192	10044
bin	0.0004220736	9857
bin	0.000422928	9996
bin	0.0004237824	9943
bin	0.0004246368	10012
bin	0.0004254912	10059
bin	0.0004263456	10015
bin	0.0004272	1014768
