version 2
run Butterfly-35-20120709-10:43:08-22774
attr alg 3
attr buf 8
attr configname Butterfly
attr datetime 20120709-10:43:08
attr delta 1.8
attr experiment Butterfly
attr ext true
attr inifile altro.ini
attr iterationvars "$buf=8, $ext=true, $ofedge=1, $delta=1.8, $alg=3"
attr iterationvars2 "$buf=8, $ext=true, $ofedge=1, $delta=1.8, $alg=3, $repetition=0"
attr measurement "$buf=8, $ext=true, $ofedge=1, $delta=1.8, $alg=3"
attr network Torus3d_bub
attr ofedge 1
attr processid 22774
attr repetition 0
attr replication #0
attr resultdir altro-results
attr runnumber 35
attr seedset 35

scalar . 	alg 	3
scalar . 	buf 	8
scalar . 	delta 	1.8
scalar . 	ofedge 	1
scalar Torus3d_bub.timer 	#endTime 	0.000819461665409
scalar Torus3d_bub.timer 	#totalHops 	35193958
scalar Torus3d_bub.timer 	#totalPacks 	6291456
scalar Torus3d_bub.timer 	#totalDerouted 	4174572
scalar Torus3d_bub.timer 	#totalOutFlanked 	3900580
scalar Torus3d_bub.timer 	#totalCQRed 	273992
scalar Torus3d_bub.timer 	#LB 	0.000786432
scalar Torus3d_bub.timer 	#ratio 	0.95969345876294
statistic Torus3d_bub.timer 	"Hop Times"
field count 6291456
field mean 3.4921500675165e-05
field stddev 4.1970620756052e-05
field sum 219.70708495177
field sqrsum 0.018755106757825
field min 4.44111092e-07
field max 0.000465077665699
bin	-INF	0
bin	0	0
bin	7.12e-08	0
bin	1.424e-07	0
bin	2.136e-07	0
bin	2.848e-07	0
bin	3.56e-07	0
bin	4.272e-07	14
bin	4.984e-07	2177
bin	5.696e-07	2255
bin	6.408e-07	2338
bin	7.12e-07	5771
bin	7.832e-07	559
bin	8.544e-07	4834
bin	9.256e-07	8291
bin	9.968e-07	4154
bin	1.068e-06	2255
bin	1.1392e-06	9777
bin	1.2104e-06	10129
bin	1.2816e-06	6087
bin	1.3528e-06	5904
bin	1.424e-06	4233
bin	1.4952e-06	11412
bin	1.5664e-06	6752
bin	1.6376e-06	6027
bin	1.7088e-06	11224
bin	1.78e-06	9739
bin	1.8512e-06	10640
bin	1.9224e-06	12156
bin	1.9936e-06	11495
bin	2.0648e-06	14000
bin	2.136e-06	10654
bin	2.2072e-06	12095
bin	2.2784e-06	21603
bin	2.3496e-06	13117
bin	2.4208e-06	17125
bin	2.492e-06	15694
bin	2.5632e-06	15034
bin	2.6344e-06	15132
bin	2.7056e-06	17098
bin	2.7768e-06	19968
bin	2.848e-06	14354
bin	2.9192e-06	14220
bin	2.9904e-06	10529
bin	3.0616e-06	17416
bin	3.1328e-06	13188
bin	3.204e-06	14763
bin	3.2752e-06	17271
bin	3.3464e-06	8697
bin	3.4176e-06	9664
bin	3.4888e-06	12001
bin	3.56e-06	13571
bin	3.6312e-06	7470
bin	3.7024e-06	9499
bin	3.7736e-06	11122
bin	3.8448e-06	11326
bin	3.916e-06	11035
bin	3.9872e-06	8647
bin	4.0584e-06	12401
bin	4.1296e-06	6670
bin	4.2008e-06	6597
bin	4.272e-06	11070
bin	4.3432e-06	10976
bin	4.4144e-06	6793
bin	4.4856e-06	6881
bin	4.5568e-06	6749
bin	4.628e-06	11229
bin	4.6992e-06	6775
bin	4.7704e-06	6942
bin	4.8416e-06	11289
bin	4.9128e-06	7158
bin	4.984e-06	7100
bin	5.0552e-06	7248
bin	5.1264e-06	12559
bin	5.1976e-06	7347
bin	5.2688e-06	8524
bin	5.34e-06	7496
bin	5.4112e-06	11959
bin	5.4824e-06	7522
bin	5.5536e-06	8706
bin	5.6248e-06	11957
bin	5.696e-06	7611
bin	5.7672e-06	7965
bin	5.8384e-06	8060
bin	5.9096e-06	12282
bin	5.9808e-06	8006
bin	6.052e-06	8129
bin	6.1232e-06	8390
bin	6.1944e-06	12785
bin	6.2656e-06	8640
bin	6.3368e-06	8354
bin	6.408e-06	12372
bin	6.4792e-06	8258
bin	6.5504e-06	8257
bin	6.6216e-06	8193
bin	6.6928e-06	12259
bin	6.764e-06	8193
bin	6.8352e-06	7999
bin	6.9064e-06	8352
bin	6.9776e-06	12356
bin	7.0488e-06	8355
bin	7.12e-06	8283
bin	7.1912e-06	12575
bin	7.2624e-06	8460
bin	7.3336e-06	8567
bin	7.4048e-06	8962
bin	7.476e-06	12697
bin	7.5472e-06	8554
bin	7.6184e-06	8655
bin	7.6896e-06	8886
bin	7.7608e-06	13036
bin	7.832e-06	8779
bin	7.9032e-06	8651
bin	7.9744e-06	12804
bin	8.0456e-06	8594
bin	8.1168e-06	8287
bin	8.188e-06	8577
bin	8.2592e-06	8685
bin	8.3304e-06	8774
bin	8.4016e-06	8684
bin	8.4728e-06	8747
bin	8.544e-06	12757
bin	8.6152e-06	8806
bin	8.6864e-06	8669
bin	8.7576e-06	13014
bin	8.8288e-06	8640
bin	8.9e-06	8540
bin	8.9712e-06	8614
bin	9.0424e-06	11032
bin	9.1136e-06	8880
bin	9.1848e-06	8844
bin	9.256e-06	8866
bin	9.3272e-06	13187
bin	9.3984e-06	8946
bin	9.4696e-06	9146
bin	9.5408e-06	9172
bin	9.612e-06	8921
bin	9.6832e-06	9016
bin	9.7544e-06	8965
bin	9.8256e-06	11181
bin	9.8968e-06	9091
bin	9.968e-06	9264
bin	1.00392e-05	9292
bin	1.01104e-05	13557
bin	1.01816e-05	9227
bin	1.02528e-05	9347
bin	1.0324e-05	11544
bin	1.03952e-05	9341
bin	1.04664e-05	9343
bin	1.05376e-05	9145
bin	1.06088e-05	9398
bin	1.068e-05	9292
bin	1.07512e-05	9463
bin	1.08224e-05	9328
bin	1.08936e-05	11562
bin	1.09648e-05	9430
bin	1.1036e-05	9394
bin	1.11072e-05	13694
bin	1.11784e-05	9508
bin	1.12496e-05	9608
bin	1.13208e-05	9710
bin	1.1392e-05	11795
bin	1.14632e-05	9580
bin	1.15344e-05	9720
bin	1.16056e-05	9787
bin	1.16768e-05	13708
bin	1.1748e-05	9578
bin	1.18192e-05	9710
bin	1.18904e-05	11865
bin	1.19616e-05	9681
bin	1.20328e-05	9592
bin	1.2104e-05	9731
bin	1.21752e-05	13833
bin	1.22464e-05	9665
bin	1.23176e-05	10021
bin	1.23888e-05	9764
bin	1.246e-05	11820
bin	1.25312e-05	9720
bin	1.26024e-05	9717
bin	1.26736e-05	14035
bin	1.27448e-05	9795
bin	1.2816e-05	9794
bin	1.28872e-05	10016
bin	1.29584e-05	11831
bin	1.30296e-05	9895
bin	1.31008e-05	9995
bin	1.3172e-05	9999
bin	1.32432e-05	9789
bin	1.33144e-05	9848
bin	1.33856e-05	9843
bin	1.34568e-05	10007
bin	1.3528e-05	9863
bin	1.35992e-05	9944
bin	1.36704e-05	10086
bin	1.37416e-05	10133
bin	1.38128e-05	10212
bin	1.3884e-05	10159
bin	1.39552e-05	10044
bin	1.40264e-05	10158
bin	1.40976e-05	10093
bin	1.41688e-05	10218
bin	1.424e-05	10190
bin	1.43112e-05	10116
bin	1.43824e-05	10335
bin	1.44536e-05	10159
bin	1.45248e-05	10267
bin	1.4596e-05	10308
bin	1.46672e-05	10285
bin	1.47384e-05	10474
bin	1.48096e-05	10366
bin	1.48808e-05	10343
bin	1.4952e-05	10279
bin	1.50232e-05	10325
bin	1.50944e-05	10059
bin	1.51656e-05	10340
bin	1.52368e-05	10202
bin	1.5308e-05	10179
bin	1.53792e-05	10342
bin	1.54504e-05	10368
bin	1.55216e-05	10325
bin	1.55928e-05	10147
bin	1.5664e-05	10384
bin	1.57352e-05	10375
bin	1.58064e-05	10476
bin	1.58776e-05	10358
bin	1.59488e-05	10497
bin	1.602e-05	10407
bin	1.60912e-05	10432
bin	1.61624e-05	10509
bin	1.62336e-05	10705
bin	1.63048e-05	10646
bin	1.6376e-05	10762
bin	1.64472e-05	10438
bin	1.65184e-05	10655
bin	1.65896e-05	10398
bin	1.66608e-05	10516
bin	1.6732e-05	10455
bin	1.68032e-05	10870
bin	1.68744e-05	10801
bin	1.69456e-05	10475
bin	1.70168e-05	10793
bin	1.7088e-05	10405
bin	1.71592e-05	10565
bin	1.72304e-05	10502
bin	1.73016e-05	10550
bin	1.73728e-05	10405
bin	1.7444e-05	10372
bin	1.75152e-05	10216
bin	1.75864e-05	10372
bin	1.76576e-05	10274
bin	1.77288e-05	10214
bin	1.78e-05	10496
bin	1.78712e-05	10333
bin	1.79424e-05	10377
bin	1.80136e-05	10328
bin	1.80848e-05	10170
bin	1.8156e-05	10366
bin	1.82272e-05	10239
bin	1.82984e-05	10344
bin	1.83696e-05	10498
bin	1.84408e-05	10352
bin	1.8512e-05	10285
bin	1.85832e-05	10480
bin	1.86544e-05	9986
bin	1.87256e-05	10184
bin	1.87968e-05	10170
bin	1.8868e-05	9984
bin	1.89392e-05	10049
bin	1.90104e-05	10088
bin	1.90816e-05	10040
bin	1.91528e-05	10163
bin	1.9224e-05	9982
bin	1.92952e-05	10168
bin	1.93664e-05	10259
bin	1.94376e-05	10070
bin	1.95088e-05	10297
bin	1.958e-05	10069
bin	1.96512e-05	10064
bin	1.97224e-05	10022
bin	1.97936e-05	10133
bin	1.98648e-05	10114
bin	1.9936e-05	10026
bin	2.00072e-05	9962
bin	2.00784e-05	9874
bin	2.01496e-05	9934
bin	2.02208e-05	9912
bin	2.0292e-05	9784
bin	2.03632e-05	9737
bin	2.04344e-05	9829
bin	2.05056e-05	9899
bin	2.05768e-05	9723
bin	2.0648e-05	9808
bin	2.07192e-05	9886
bin	2.07904e-05	9868
bin	2.08616e-05	9967
bin	2.09328e-05	9927
bin	2.1004e-05	9633
bin	2.10752e-05	9803
bin	2.11464e-05	9776
bin	2.12176e-05	9661
bin	2.12888e-05	9768
bin	2.136e-05	9614
bin	2.14312e-05	9551
bin	2.15024e-05	9709
bin	2.15736e-05	9728
bin	2.16448e-05	9634
bin	2.1716e-05	9888
bin	2.17872e-05	9569
bin	2.18584e-05	9729
bin	2.19296e-05	9537
bin	2.20008e-05	9580
bin	2.2072e-05	9352
bin	2.21432e-05	9465
bin	2.22144e-05	9491
bin	2.22856e-05	9515
bin	2.23568e-05	9334
bin	2.2428e-05	9325
bin	2.24992e-05	9449
bin	2.25704e-05	9125
bin	2.26416e-05	9372
bin	2.27128e-05	9359
bin	2.2784e-05	9456
bin	2.28552e-05	9456
bin	2.29264e-05	9252
bin	2.29976e-05	9235
bin	2.30688e-05	9296
bin	2.314e-05	9219
bin	2.32112e-05	9050
bin	2.32824e-05	9184
bin	2.33536e-05	9196
bin	2.34248e-05	9051
bin	2.3496e-05	9110
bin	2.35672e-05	9111
bin	2.36384e-05	9069
bin	2.37096e-05	9025
bin	2.37808e-05	8944
bin	2.3852e-05	9010
bin	2.39232e-05	8943
bin	2.39944e-05	8968
bin	2.40656e-05	8983
bin	2.41368e-05	9083
bin	2.4208e-05	8939
bin	2.42792e-05	8969
bin	2.43504e-05	8929
bin	2.44216e-05	8869
bin	2.44928e-05	8845
bin	2.4564e-05	8858
bin	2.46352e-05	8734
bin	2.47064e-05	8688
bin	2.47776e-05	8556
bin	2.48488e-05	8612
bin	2.492e-05	8658
bin	2.49912e-05	8553
bin	2.50624e-05	8692
bin	2.51336e-05	8641
bin	2.52048e-05	8437
bin	2.5276e-05	8558
bin	2.53472e-05	8392
bin	2.54184e-05	8649
bin	2.54896e-05	8466
bin	2.55608e-05	8532
bin	2.5632e-05	8677
bin	2.57032e-05	8419
bin	2.57744e-05	8435
bin	2.58456e-05	8489
bin	2.59168e-05	8428
bin	2.5988e-05	8266
bin	2.60592e-05	8321
bin	2.61304e-05	8166
bin	2.62016e-05	8242
bin	2.62728e-05	8202
bin	2.6344e-05	8136
bin	2.64152e-05	8312
bin	2.64864e-05	8350
bin	2.65576e-05	8426
bin	2.66288e-05	8166
bin	2.67e-05	8190
bin	2.67712e-05	8115
bin	2.68424e-05	8218
bin	2.69136e-05	8059
bin	2.69848e-05	8108
bin	2.7056e-05	8068
bin	2.71272e-05	7990
bin	2.71984e-05	8056
bin	2.72696e-05	8032
bin	2.73408e-05	8079
bin	2.7412e-05	7878
bin	2.74832e-05	7974
bin	2.75544e-05	7780
bin	2.76256e-05	7896
bin	2.76968e-05	7790
bin	2.7768e-05	7767
bin	2.78392e-05	7675
bin	2.79104e-05	7621
bin	2.79816e-05	7786
bin	2.80528e-05	7717
bin	2.8124e-05	7763
bin	2.81952e-05	7510
bin	2.82664e-05	7701
bin	2.83376e-05	7531
bin	2.84088e-05	7624
bin	2.848e-05	7370
bin	2.85512e-05	7588
bin	2.86224e-05	7564
bin	2.86936e-05	7380
bin	2.87648e-05	7488
bin	2.8836e-05	7486
bin	2.89072e-05	7430
bin	2.89784e-05	7245
bin	2.90496e-05	7243
bin	2.91208e-05	7306
bin	2.9192e-05	7350
bin	2.92632e-05	7126
bin	2.93344e-05	7405
bin	2.94056e-05	7412
bin	2.94768e-05	7152
bin	2.9548e-05	7250
bin	2.96192e-05	6985
bin	2.96904e-05	6985
bin	2.97616e-05	7075
bin	2.98328e-05	7049
bin	2.9904e-05	6883
bin	2.99752e-05	7142
bin	3.00464e-05	6823
bin	3.01176e-05	7132
bin	3.01888e-05	6999
bin	3.026e-05	6804
bin	3.03312e-05	6940
bin	3.04024e-05	6682
bin	3.04736e-05	6675
bin	3.05448e-05	6643
bin	3.0616e-05	6890
bin	3.06872e-05	6697
bin	3.07584e-05	6939
bin	3.08296e-05	6635
bin	3.09008e-05	6793
bin	3.0972e-05	6602
bin	3.10432e-05	6492
bin	3.11144e-05	6709
bin	3.11856e-05	6410
bin	3.12568e-05	6572
bin	3.1328e-05	6334
bin	3.13992e-05	6414
bin	3.14704e-05	6231
bin	3.15416e-05	6539
bin	3.16128e-05	6326
bin	3.1684e-05	6545
bin	3.17552e-05	6425
bin	3.18264e-05	6303
bin	3.18976e-05	6574
bin	3.19688e-05	6139
bin	3.204e-05	6358
bin	3.21112e-05	6112
bin	3.21824e-05	6160
bin	3.22536e-05	6146
bin	3.23248e-05	6144
bin	3.2396e-05	6148
bin	3.24672e-05	6071
bin	3.25384e-05	6070
bin	3.26096e-05	6033
bin	3.26808e-05	6069
bin	3.2752e-05	5875
bin	3.28232e-05	6060
bin	3.28944e-05	5854
bin	3.29656e-05	6160
bin	3.30368e-05	5963
bin	3.3108e-05	6111
bin	3.31792e-05	5867
bin	3.32504e-05	6003
bin	3.33216e-05	5948
bin	3.33928e-05	5756
bin	3.3464e-05	5989
bin	3.35352e-05	5729
bin	3.36064e-05	5919
bin	3.36776e-05	5633
bin	3.37488e-05	5896
bin	3.382e-05	5565
bin	3.38912e-05	5792
bin	3.39624e-05	5600
bin	3.40336e-05	5572
bin	3.41048e-05	5792
bin	3.4176e-05	5460
bin	3.42472e-05	5705
bin	3.43184e-05	5578
bin	3.43896e-05	5649
bin	3.44608e-05	5459
bin	3.4532e-05	5639
bin	3.46032e-05	5399
bin	3.46744e-05	5533
bin	3.47456e-05	5410
bin	3.48168e-05	5466
bin	3.4888e-05	5519
bin	3.49592e-05	5319
bin	3.50304e-05	5313
bin	3.51016e-05	5223
bin	3.51728e-05	5474
bin	3.5244e-05	5149
bin	3.53152e-05	5506
bin	3.53864e-05	5205
bin	3.54576e-05	5486
bin	3.55288e-05	5273
bin	3.56e-05	1857170
statistic Torus3d_bub.timer 	"Life Times"
field count 6291456
field mean 0.00013667368651714
field stddev 8.5324877779945e-05
field sum 859.87648508037
field sqrsum 0.16332638774416
field min 7.33332745e-07
field max 0.000555356666199
bin	-INF	0
bin	0	4418
bin	8.544e-07	20210
bin	1.7088e-06	29622
bin	2.5632e-06	20142
bin	3.4176e-06	25270
bin	4.272e-06	27238
bin	5.1264e-06	36281
bin	5.9808e-06	27575
bin	6.8352e-06	24082
bin	7.6896e-06	27243
bin	8.544e-06	38009
bin	9.3984e-06	33730
bin	1.02528e-05	28433
bin	1.11072e-05	46693
bin	1.19616e-05	32728
bin	1.2816e-05	25332
bin	1.36704e-05	23318
bin	1.45248e-05	19241
bin	1.53792e-05	25880
bin	1.62336e-05	21493
bin	1.7088e-05	20356
bin	1.79424e-05	18249
bin	1.87968e-05	18412
bin	1.96512e-05	18140
bin	2.05056e-05	17903
bin	2.136e-05	15365
bin	2.22144e-05	15374
bin	2.30688e-05	14387
bin	2.39232e-05	13465
bin	2.47776e-05	14247
bin	2.5632e-05	13762
bin	2.64864e-05	13973
bin	2.73408e-05	14322
bin	2.81952e-05	14558
bin	2.90496e-05	16525
bin	2.9904e-05	16144
bin	3.07584e-05	16679
bin	3.16128e-05	15943
bin	3.24672e-05	16527
bin	3.33216e-05	16720
bin	3.4176e-05	16493
bin	3.50304e-05	16398
bin	3.58848e-05	16092
bin	3.67392e-05	16170
bin	3.75936e-05	16081
bin	3.8448e-05	16700
bin	3.93024e-05	16458
bin	4.01568e-05	16794
bin	4.10112e-05	16738
bin	4.18656e-05	17370
bin	4.272e-05	17309
bin	4.35744e-05	17444
bin	4.44288e-05	17403
bin	4.52832e-05	17616
bin	4.61376e-05	18137
bin	4.6992e-05	18056
bin	4.78464e-05	18245
bin	4.87008e-05	18477
bin	4.95552e-05	18695
bin	5.04096e-05	18914
bin	5.1264e-05	19147
bin	5.21184e-05	19558
bin	5.29728e-05	19283
bin	5.38272e-05	19353
bin	5.46816e-05	19646
bin	5.5536e-05	20282
bin	5.63904e-05	20186
bin	5.72448e-05	20276
bin	5.80992e-05	20316
bin	5.89536e-05	20030
bin	5.9808e-05	20148
bin	6.06624e-05	19974
bin	6.15168e-05	20250
bin	6.23712e-05	19933
bin	6.32256e-05	19935
bin	6.408e-05	20068
bin	6.49344e-05	19969
bin	6.57888e-05	19962
bin	6.66432e-05	19791
bin	6.74976e-05	19776
bin	6.8352e-05	19497
bin	6.92064e-05	19521
bin	7.00608e-05	19424
bin	7.09152e-05	19858
bin	7.17696e-05	19553
bin	7.2624e-05	19656
bin	7.34784e-05	19507
bin	7.43328e-05	19466
bin	7.51872e-05	19191
bin	7.60416e-05	18975
bin	7.6896e-05	19402
bin	7.77504e-05	19112
bin	7.86048e-05	19177
bin	7.94592e-05	19159
bin	8.03136e-05	19238
bin	8.1168e-05	19081
bin	8.20224e-05	18936
bin	8.28768e-05	19209
bin	8.37312e-05	19269
bin	8.45856e-05	19383
bin	8.544e-05	19496
bin	8.62944e-05	19653
bin	8.71488e-05	19884
bin	8.80032e-05	19952
bin	8.88576e-05	20184
bin	8.9712e-05	20413
bin	9.05664e-05	20431
bin	9.14208e-05	20364
bin	9.22752e-05	20424
bin	9.31296e-05	20527
bin	9.3984e-05	20831
bin	9.48384e-05	21013
bin	9.56928e-05	20888
bin	9.65472e-05	21051
bin	9.74016e-05	20949
bin	9.8256e-05	21347
bin	9.91104e-05	20940
bin	9.99648e-05	20920
bin	0.0001008192	20897
bin	0.0001016736	21248
bin	0.000102528	21049
bin	0.0001033824	21141
bin	0.0001042368	21457
bin	0.0001050912	21183
bin	0.0001059456	21167
bin	0.0001068	21224
bin	0.0001076544	21227
bin	0.0001085088	21435
bin	0.0001093632	21539
bin	0.0001102176	21689
bin	0.000111072	21499
bin	0.0001119264	21487
bin	0.0001127808	21735
bin	0.0001136352	21895
bin	0.0001144896	21836
bin	0.000115344	21652
bin	0.0001161984	21830
bin	0.0001170528	21678
bin	0.0001179072	21750
bin	0.0001187616	21641
bin	0.000119616	21598
bin	0.0001204704	21661
bin	0.0001213248	21687
bin	0.0001221792	21780
bin	0.0001230336	21714
bin	0.000123888	21673
bin	0.0001247424	21692
bin	0.0001255968	21668
bin	0.0001264512	21562
bin	0.0001273056	21456
bin	0.00012816	21738
bin	0.0001290144	21478
bin	0.0001298688	21802
bin	0.0001307232	21703
bin	0.0001315776	21595
bin	0.000132432	21757
bin	0.0001332864	21686
bin	0.0001341408	21963
bin	0.0001349952	22033
bin	0.0001358496	21890
bin	0.000136704	21936
bin	0.0001375584	21989
bin	0.0001384128	22513
bin	0.0001392672	21835
bin	0.0001401216	21890
bin	0.000140976	21842
bin	0.0001418304	22133
bin	0.0001426848	21985
bin	0.0001435392	21999
bin	0.0001443936	21968
bin	0.000145248	21883
bin	0.0001461024	21884
bin	0.0001469568	21945
bin	0.0001478112	21960
bin	0.0001486656	21782
bin	0.00014952	21641
bin	0.0001503744	21504
bin	0.0001512288	21401
bin	0.0001520832	21141
bin	0.0001529376	21723
bin	0.000153792	21665
bin	0.0001546464	21393
bin	0.0001555008	21380
bin	0.0001563552	21043
bin	0.0001572096	21299
bin	0.000158064	21447
bin	0.0001589184	21758
bin	0.0001597728	21613
bin	0.0001606272	21427
bin	0.0001614816	21331
bin	0.000162336	21058
bin	0.0001631904	21262
bin	0.0001640448	21309
bin	0.0001648992	21295
bin	0.0001657536	21084
bin	0.000166608	21160
bin	0.0001674624	20869
bin	0.0001683168	20982
bin	0.0001691712	20816
bin	0.0001700256	20667
bin	0.00017088	20582
bin	0.0001717344	20644
bin	0.0001725888	20255
bin	0.0001734432	20347
bin	0.0001742976	19799
bin	0.000175152	20017
bin	0.0001760064	19919
bin	0.0001768608	19797
bin	0.0001777152	19944
bin	0.0001785696	19451
bin	0.000179424	19783
bin	0.0001802784	19569
bin	0.0001811328	19379
bin	0.0001819872	19305
bin	0.0001828416	19138
bin	0.000183696	19027
bin	0.0001845504	19147
bin	0.0001854048	19159
bin	0.0001862592	18770
bin	0.0001871136	18542
bin	0.000187968	18603
bin	0.0001888224	18282
bin	0.0001896768	18122
bin	0.0001905312	18306
bin	0.0001913856	18253
bin	0.00019224	17829
bin	0.0001930944	18276
bin	0.0001939488	18278
bin	0.0001948032	18055
bin	0.0001956576	17849
bin	0.000196512	17678
bin	0.0001973664	17635
bin	0.0001982208	17438
bin	0.0001990752	17460
bin	0.0001999296	17246
bin	0.000200784	17182
bin	0.0002016384	16964
bin	0.0002024928	16963
bin	0.0002033472	17105
bin	0.0002042016	17061
bin	0.000205056	16776
bin	0.0002059104	16771
bin	0.0002067648	17055
bin	0.0002076192	16648
bin	0.0002084736	16546
bin	0.000209328	16469
bin	0.0002101824	16146
bin	0.0002110368	16219
bin	0.0002118912	16486
bin	0.0002127456	16231
bin	0.0002136	15990
bin	0.0002144544	15954
bin	0.0002153088	15841
bin	0.0002161632	15534
bin	0.0002170176	15604
bin	0.000217872	15417
bin	0.0002187264	15336
bin	0.0002195808	15054
bin	0.0002204352	14965
bin	0.0002212896	14715
bin	0.000222144	14769
bin	0.0002229984	14788
bin	0.0002238528	14850
bin	0.0002247072	14552
bin	0.0002255616	14396
bin	0.000226416	14299
bin	0.0002272704	14126
bin	0.0002281248	14236
bin	0.0002289792	14099
bin	0.0002298336	13864
bin	0.000230688	13763
bin	0.0002315424	13560
bin	0.0002323968	13674
bin	0.0002332512	13625
bin	0.0002341056	13385
bin	0.00023496	13443
bin	0.0002358144	13157
bin	0.0002366688	12951
bin	0.0002375232	12719
bin	0.0002383776	12955
bin	0.000239232	12949
bin	0.0002400864	12891
bin	0.0002409408	12584
bin	0.0002417952	12563
bin	0.0002426496	12254
bin	0.000243504	12174
bin	0.0002443584	12094
bin	0.0002452128	12106
bin	0.0002460672	11711
bin	0.0002469216	11588
bin	0.000247776	11415
bin	0.0002486304	11433
bin	0.0002494848	11207
bin	0.0002503392	11109
bin	0.0002511936	10802
bin	0.000252048	11049
bin	0.0002529024	10803
bin	0.0002537568	10779
bin	0.0002546112	10472
bin	0.0002554656	10623
bin	0.00025632	10546
bin	0.0002571744	10429
bin	0.0002580288	10149
bin	0.0002588832	10150
bin	0.0002597376	10150
bin	0.000260592	9876
bin	0.0002614464	9619
bin	0.0002623008	9594
bin	0.0002631552	9510
bin	0.0002640096	9476
bin	0.000264864	9159
bin	0.0002657184	9085
bin	0.0002665728	9081
bin	0.0002674272	8824
bin	0.0002682816	8540
bin	0.000269136	8304
bin	0.0002699904	8381
bin	0.0002708448	8286
bin	0.0002716992	8097
bin	0.0002725536	8066
bin	0.000273408	7957
bin	0.0002742624	7877
bin	0.0002751168	7940
bin	0.0002759712	7802
bin	0.0002768256	7362
bin	0.00027768	7421
bin	0.0002785344	7201
bin	0.0002793888	7219
bin	0.0002802432	6947
bin	0.0002810976	7062
bin	0.000281952	6865
bin	0.0002828064	6760
bin	0.0002836608	6925
bin	0.0002845152	6730
bin	0.0002853696	6618
bin	0.000286224	6461
bin	0.0002870784	6312
bin	0.0002879328	6348
bin	0.0002887872	6236
bin	0.0002896416	5986
bin	0.000290496	5965
bin	0.0002913504	5735
bin	0.0002922048	5557
bin	0.0002930592	5383
bin	0.0002939136	5339
bin	0.000294768	5205
bin	0.0002956224	4932
bin	0.0002964768	4917
bin	0.0002973312	4876
bin	0.0002981856	4791
bin	0.00029904	4860
bin	0.0002998944	4710
bin	0.0003007488	4618
bin	0.0003016032	4491
bin	0.0003024576	4445
bin	0.000303312	4435
bin	0.0003041664	4274
bin	0.0003050208	4184
bin	0.0003058752	4110
bin	0.0003067296	4023
bin	0.000307584	3792
bin	0.0003084384	3836
bin	0.0003092928	3706
bin	0.0003101472	3562
bin	0.0003110016	3578
bin	0.000311856	3539
bin	0.0003127104	3428
bin	0.0003135648	3269
bin	0.0003144192	3190
bin	0.0003152736	3144
bin	0.000316128	3058
bin	0.0003169824	3123
bin	0.0003178368	2996
bin	0.0003186912	3006
bin	0.0003195456	2802
bin	0.0003204	2718
bin	0.0003212544	2661
bin	0.0003221088	2660
bin	0.0003229632	2626
bin	0.0003238176	2587
bin	0.000324672	2510
bin	0.0003255264	2502
bin	0.0003263808	2378
bin	0.0003272352	2383
bin	0.0003280896	2344
bin	0.000328944	2272
bin	0.0003297984	2131
bin	0.0003306528	2109
bin	0.0003315072	2040
bin	0.0003323616	2082
bin	0.000333216	1963
bin	0.0003340704	1930
bin	0.0003349248	1862
bin	0.0003357792	1855
bin	0.0003366336	1760
bin	0.000337488	1725
bin	0.0003383424	1731
bin	0.0003391968	1674
bin	0.0003400512	1595
bin	0.0003409056	1582
bin	0.00034176	1600
bin	0.0003426144	1560
bin	0.0003434688	1424
bin	0.0003443232	1514
bin	0.0003451776	1428
bin	0.000346032	1386
bin	0.0003468864	1324
bin	0.0003477408	1271
bin	0.0003485952	1334
bin	0.0003494496	1219
bin	0.000350304	1177
bin	0.0003511584	1227
bin	0.0003520128	1195
bin	0.0003528672	1154
bin	0.0003537216	1155
bin	0.000354576	1104
bin	0.0003554304	1047
bin	0.0003562848	1008
bin	0.0003571392	1008
bin	0.0003579936	1002
bin	0.000358848	935
bin	0.0003597024	938
bin	0.0003605568	907
bin	0.0003614112	865
bin	0.0003622656	855
bin	0.00036312	855
bin	0.0003639744	885
bin	0.0003648288	805
bin	0.0003656832	764
bin	0.0003665376	734
bin	0.000367392	749
bin	0.0003682464	717
bin	0.0003691008	695
bin	0.0003699552	639
bin	0.0003708096	700
bin	0.000371664	647
bin	0.0003725184	602
bin	0.0003733728	627
bin	0.0003742272	634
bin	0.0003750816	645
bin	0.000375936	649
bin	0.0003767904	649
bin	0.0003776448	615
bin	0.0003784992	593
bin	0.0003793536	569
bin	0.000380208	567
bin	0.0003810624	529
bin	0.0003819168	543
bin	0.0003827712	497
bin	0.0003836256	521
bin	0.00038448	499
bin	0.0003853344	449
bin	0.0003861888	452
bin	0.0003870432	434
bin	0.0003878976	438
bin	0.000388752	428
bin	0.0003896064	439
bin	0.0003904608	404
bin	0.0003913152	398
bin	0.0003921696	421
bin	0.000393024	373
bin	0.0003938784	415
bin	0.0003947328	370
bin	0.0003955872	379
bin	0.0003964416	344
bin	0.000397296	348
bin	0.0003981504	344
bin	0.0003990048	332
bin	0.0003998592	323
bin	0.0004007136	328
bin	0.000401568	315
bin	0.0004024224	293
bin	0.0004032768	316
bin	0.0004041312	289
bin	0.0004049856	281
bin	0.00040584	293
bin	0.0004066944	287
bin	0.0004075488	275
bin	0.0004084032	270
bin	0.0004092576	260
bin	0.000410112	243
bin	0.0004109664	245
bin	0.0004118208	252
bin	0.0004126752	233
bin	0.0004135296	206
bin	0.000414384	206
bin	0.0004152384	184
bin	0.0004160928	216
bin	0.0004169472	208
bin	0.0004178016	202
bin	0.000418656	214
bin	0.0004195104	191
bin	0.0004203648	211
bin	0.0004212192	192
bin	0.0004220736	188
bin	0.000422928	173
bin	0.0004237824	174
bin	0.0004246368	158
bin	0.0004254912	126
bin	0.0004263456	134
bin	0.0004272	2443
