version 2
run Butterfly-160-20120709-14:44:23-24211
attr alg 0
attr buf 8
attr configname Butterfly
attr datetime 20120709-14:44:23
attr delta 1
attr experiment Butterfly
attr ext false
attr inifile altro.ini
attr iterationvars "$buf=8, $ext=false, $ofedge=2, $delta=1, $alg=0"
attr iterationvars2 "$buf=8, $ext=false, $ofedge=2, $delta=1, $alg=0, $repetition=0"
attr measurement "$buf=8, $ext=false, $ofedge=2, $delta=1, $alg=0"
attr network Torus3d_bub
attr ofedge 2
attr processid 24211
attr repetition 0
attr replication #0
attr resultdir altro-results
attr runnumber 160
attr seedset 160

scalar . 	alg 	0
scalar . 	buf 	8
scalar . 	delta 	1
scalar . 	ofedge 	2
scalar Torus3d_bub.timer 	#endTime 	0.001046448331741
scalar Torus3d_bub.timer 	#totalHops 	23592960
scalar Torus3d_bub.timer 	#totalPacks 	6291456
scalar Torus3d_bub.timer 	#totalDerouted 	0
scalar Torus3d_bub.timer 	#totalOutFlanked 	0
scalar Torus3d_bub.timer 	#totalCQRed 	0
scalar Torus3d_bub.timer 	#LB 	0.000786432
scalar Torus3d_bub.timer 	#ratio 	0.75152492115076
statistic Torus3d_bub.timer 	"Hop Times"
field count 6291456
field mean 3.5373377568364e-05
field stddev 4.294105167709e-05
field sum 222.55004854275
field sqrsum 0.019473374170168
field min 3.81833242e-07
field max 0.00037709599865
bin	-INF	0
bin	0	0
bin	7.12e-08	0
bin	1.424e-07	0
bin	2.136e-07	0
bin	2.848e-07	0
bin	3.56e-07	544
bin	4.272e-07	6440
bin	4.984e-07	15200
bin	5.696e-07	8912
bin	6.408e-07	8552
bin	7.12e-07	11872
bin	7.832e-07	6296
bin	8.544e-07	12240
bin	9.256e-07	7472
bin	9.968e-07	12024
bin	1.068e-06	12504
bin	1.1392e-06	13432
bin	1.2104e-06	12600
bin	1.2816e-06	15976
bin	1.3528e-06	13960
bin	1.424e-06	10712
bin	1.4952e-06	14704
bin	1.5664e-06	13640
bin	1.6376e-06	15488
bin	1.7088e-06	16312
bin	1.78e-06	15032
bin	1.8512e-06	13496
bin	1.9224e-06	16096
bin	1.9936e-06	11384
bin	2.0648e-06	14416
bin	2.136e-06	15776
bin	2.2072e-06	15912
bin	2.2784e-06	14984
bin	2.3496e-06	13368
bin	2.4208e-06	13360
bin	2.492e-06	14712
bin	2.5632e-06	19416
bin	2.6344e-06	14216
bin	2.7056e-06	14168
bin	2.7768e-06	12688
bin	2.848e-06	22504
bin	2.9192e-06	13024
bin	2.9904e-06	17824
bin	3.0616e-06	23592
bin	3.1328e-06	15280
bin	3.204e-06	15480
bin	3.2752e-06	13912
bin	3.3464e-06	17584
bin	3.4176e-06	19200
bin	3.4888e-06	14200
bin	3.56e-06	14992
bin	3.6312e-06	17232
bin	3.7024e-06	13856
bin	3.7736e-06	11352
bin	3.8448e-06	18216
bin	3.916e-06	12960
bin	3.9872e-06	14016
bin	4.0584e-06	13736
bin	4.1296e-06	15352
bin	4.2008e-06	17408
bin	4.272e-06	13464
bin	4.3432e-06	13656
bin	4.4144e-06	16664
bin	4.4856e-06	18528
bin	4.5568e-06	15304
bin	4.628e-06	19328
bin	4.6992e-06	13816
bin	4.7704e-06	16624
bin	4.8416e-06	14944
bin	4.9128e-06	19424
bin	4.984e-06	13992
bin	5.0552e-06	15368
bin	5.1264e-06	17112
bin	5.1976e-06	18776
bin	5.2688e-06	13176
bin	5.34e-06	11344
bin	5.4112e-06	17984
bin	5.4824e-06	11952
bin	5.5536e-06	18200
bin	5.6248e-06	16704
bin	5.696e-06	16152
bin	5.7672e-06	16552
bin	5.8384e-06	12576
bin	5.9096e-06	18376
bin	5.9808e-06	18824
bin	6.052e-06	18048
bin	6.1232e-06	11744
bin	6.1944e-06	19544
bin	6.2656e-06	15656
bin	6.3368e-06	15576
bin	6.408e-06	16264
bin	6.4792e-06	18672
bin	6.5504e-06	16136
bin	6.6216e-06	13296
bin	6.6928e-06	15264
bin	6.764e-06	16464
bin	6.8352e-06	15328
bin	6.9064e-06	13504
bin	6.9776e-06	16888
bin	7.0488e-06	12160
bin	7.12e-06	14984
bin	7.1912e-06	14416
bin	7.2624e-06	19256
bin	7.3336e-06	15784
bin	7.4048e-06	12576
bin	7.476e-06	17760
bin	7.5472e-06	16176
bin	7.6184e-06	11808
bin	7.6896e-06	11888
bin	7.7608e-06	22200
bin	7.832e-06	12808
bin	7.9032e-06	13200
bin	7.9744e-06	13544
bin	8.0456e-06	15464
bin	8.1168e-06	15272
bin	8.188e-06	12424
bin	8.2592e-06	12552
bin	8.3304e-06	13872
bin	8.4016e-06	12112
bin	8.4728e-06	13368
bin	8.544e-06	18048
bin	8.6152e-06	13304
bin	8.6864e-06	14400
bin	8.7576e-06	12520
bin	8.8288e-06	19400
bin	8.9e-06	14680
bin	8.9712e-06	14280
bin	9.0424e-06	11992
bin	9.1136e-06	15504
bin	9.1848e-06	9800
bin	9.256e-06	13072
bin	9.3272e-06	15952
bin	9.3984e-06	11184
bin	9.4696e-06	12280
bin	9.5408e-06	11432
bin	9.612e-06	15912
bin	9.6832e-06	11128
bin	9.7544e-06	11944
bin	9.8256e-06	9080
bin	9.8968e-06	18064
bin	9.968e-06	9824
bin	1.00392e-05	11224
bin	1.01104e-05	15816
bin	1.01816e-05	11768
bin	1.02528e-05	11624
bin	1.0324e-05	9696
bin	1.03952e-05	16864
bin	1.04664e-05	13576
bin	1.05376e-05	14048
bin	1.06088e-05	11000
bin	1.068e-05	18336
bin	1.07512e-05	12672
bin	1.08224e-05	12840
bin	1.08936e-05	17392
bin	1.09648e-05	13336
bin	1.1036e-05	14112
bin	1.11072e-05	12568
bin	1.11784e-05	18264
bin	1.12496e-05	14336
bin	1.13208e-05	14384
bin	1.1392e-05	12120
bin	1.14632e-05	19512
bin	1.15344e-05	12760
bin	1.16056e-05	14560
bin	1.16768e-05	17816
bin	1.1748e-05	13328
bin	1.18192e-05	14248
bin	1.18904e-05	15328
bin	1.19616e-05	18456
bin	1.20328e-05	13064
bin	1.2104e-05	11416
bin	1.21752e-05	13440
bin	1.22464e-05	18424
bin	1.23176e-05	12808
bin	1.23888e-05	12696
bin	1.246e-05	19208
bin	1.25312e-05	12856
bin	1.26024e-05	11376
bin	1.26736e-05	10248
bin	1.27448e-05	16752
bin	1.2816e-05	9936
bin	1.28872e-05	9544
bin	1.29584e-05	8080
bin	1.30296e-05	11480
bin	1.31008e-05	9880
bin	1.3172e-05	9248
bin	1.32432e-05	8128
bin	1.33144e-05	8688
bin	1.33856e-05	9224
bin	1.34568e-05	8600
bin	1.3528e-05	7952
bin	1.35992e-05	8664
bin	1.36704e-05	8136
bin	1.37416e-05	9728
bin	1.38128e-05	11384
bin	1.3884e-05	9816
bin	1.39552e-05	9232
bin	1.40264e-05	8920
bin	1.40976e-05	10024
bin	1.41688e-05	9048
bin	1.424e-05	7776
bin	1.43112e-05	7872
bin	1.43824e-05	10168
bin	1.44536e-05	11192
bin	1.45248e-05	9968
bin	1.4596e-05	11168
bin	1.46672e-05	9280
bin	1.47384e-05	10992
bin	1.48096e-05	8456
bin	1.48808e-05	9032
bin	1.4952e-05	7888
bin	1.50232e-05	7816
bin	1.50944e-05	8800
bin	1.51656e-05	9504
bin	1.52368e-05	9400
bin	1.5308e-05	8520
bin	1.53792e-05	9776
bin	1.54504e-05	8848
bin	1.55216e-05	8408
bin	1.55928e-05	7712
bin	1.5664e-05	8368
bin	1.57352e-05	7600
bin	1.58064e-05	6840
bin	1.58776e-05	7144
bin	1.59488e-05	8368
bin	1.602e-05	6976
bin	1.60912e-05	7824
bin	1.61624e-05	6960
bin	1.62336e-05	7888
bin	1.63048e-05	6416
bin	1.6376e-05	6776
bin	1.64472e-05	6960
bin	1.65184e-05	7048
bin	1.65896e-05	6648
bin	1.66608e-05	6744
bin	1.6732e-05	7592
bin	1.68032e-05	6544
bin	1.68744e-05	6840
bin	1.69456e-05	7608
bin	1.70168e-05	7104
bin	1.7088e-05	6064
bin	1.71592e-05	7320
bin	1.72304e-05	7464
bin	1.73016e-05	6832
bin	1.73728e-05	7032
bin	1.7444e-05	6688
bin	1.75152e-05	7760
bin	1.75864e-05	6168
bin	1.76576e-05	7216
bin	1.77288e-05	6784
bin	1.78e-05	7112
bin	1.78712e-05	6320
bin	1.79424e-05	7456
bin	1.80136e-05	7264
bin	1.80848e-05	6416
bin	1.8156e-05	6616
bin	1.82272e-05	5944
bin	1.82984e-05	7352
bin	1.83696e-05	5944
bin	1.84408e-05	6752
bin	1.8512e-05	6760
bin	1.85832e-05	7360
bin	1.86544e-05	6144
bin	1.87256e-05	7256
bin	1.87968e-05	7712
bin	1.8868e-05	6960
bin	1.89392e-05	7488
bin	1.90104e-05	6760
bin	1.90816e-05	7392
bin	1.91528e-05	6128
bin	1.9224e-05	6680
bin	1.92952e-05	6592
bin	1.93664e-05	6808
bin	1.94376e-05	6144
bin	1.95088e-05	6256
bin	1.958e-05	6984
bin	1.96512e-05	6208
bin	1.97224e-05	6576
bin	1.97936e-05	5960
bin	1.98648e-05	6968
bin	1.9936e-05	5496
bin	2.00072e-05	6632
bin	2.00784e-05	6208
bin	2.01496e-05	6320
bin	2.02208e-05	5776
bin	2.0292e-05	6128
bin	2.03632e-05	6480
bin	2.04344e-05	6168
bin	2.05056e-05	6016
bin	2.05768e-05	5912
bin	2.0648e-05	6760
bin	2.07192e-05	5696
bin	2.07904e-05	5920
bin	2.08616e-05	6184
bin	2.09328e-05	5832
bin	2.1004e-05	5568
bin	2.10752e-05	6128
bin	2.11464e-05	6120
bin	2.12176e-05	5192
bin	2.12888e-05	5224
bin	2.136e-05	4856
bin	2.14312e-05	5752
bin	2.15024e-05	4968
bin	2.15736e-05	5944
bin	2.16448e-05	5768
bin	2.1716e-05	5760
bin	2.17872e-05	5896
bin	2.18584e-05	5888
bin	2.19296e-05	6064
bin	2.20008e-05	5224
bin	2.2072e-05	5104
bin	2.21432e-05	5104
bin	2.22144e-05	6168
bin	2.22856e-05	4800
bin	2.23568e-05	5592
bin	2.2428e-05	5584
bin	2.24992e-05	5072
bin	2.25704e-05	5152
bin	2.26416e-05	5656
bin	2.27128e-05	5472
bin	2.2784e-05	5464
bin	2.28552e-05	5712
bin	2.29264e-05	4720
bin	2.29976e-05	6224
bin	2.30688e-05	5608
bin	2.314e-05	5336
bin	2.32112e-05	5264
bin	2.32824e-05	5272
bin	2.33536e-05	4648
bin	2.34248e-05	4800
bin	2.3496e-05	4976
bin	2.35672e-05	4848
bin	2.36384e-05	5240
bin	2.37096e-05	4824
bin	2.37808e-05	4712
bin	2.3852e-05	4704
bin	2.39232e-05	4656
bin	2.39944e-05	4512
bin	2.40656e-05	4664
bin	2.41368e-05	5408
bin	2.4208e-05	4664
bin	2.42792e-05	4640
bin	2.43504e-05	5368
bin	2.44216e-05	6032
bin	2.44928e-05	5488
bin	2.4564e-05	4496
bin	2.46352e-05	5256
bin	2.47064e-05	6856
bin	2.47776e-05	6648
bin	2.48488e-05	5312
bin	2.492e-05	4744
bin	2.49912e-05	5504
bin	2.50624e-05	5328
bin	2.51336e-05	5368
bin	2.52048e-05	4328
bin	2.5276e-05	4232
bin	2.53472e-05	5912
bin	2.54184e-05	5392
bin	2.54896e-05	5408
bin	2.55608e-05	5288
bin	2.5632e-05	5856
bin	2.57032e-05	5136
bin	2.57744e-05	4504
bin	2.58456e-05	5264
bin	2.59168e-05	6088
bin	2.5988e-05	5040
bin	2.60592e-05	5032
bin	2.61304e-05	5920
bin	2.62016e-05	5216
bin	2.62728e-05	5296
bin	2.6344e-05	4776
bin	2.64152e-05	6080
bin	2.64864e-05	4768
bin	2.65576e-05	5240
bin	2.66288e-05	4632
bin	2.67e-05	4736
bin	2.67712e-05	3952
bin	2.68424e-05	4072
bin	2.69136e-05	4808
bin	2.69848e-05	4304
bin	2.7056e-05	4152
bin	2.71272e-05	3800
bin	2.71984e-05	5272
bin	2.72696e-05	3840
bin	2.73408e-05	4000
bin	2.7412e-05	3584
bin	2.74832e-05	4640
bin	2.75544e-05	3856
bin	2.76256e-05	3544
bin	2.76968e-05	3896
bin	2.7768e-05	4528
bin	2.78392e-05	3976
bin	2.79104e-05	3344
bin	2.79816e-05	4584
bin	2.80528e-05	3288
bin	2.8124e-05	3912
bin	2.81952e-05	3440
bin	2.82664e-05	4264
bin	2.83376e-05	3792
bin	2.84088e-05	3496
bin	2.848e-05	4192
bin	2.85512e-05	3648
bin	2.86224e-05	3992
bin	2.86936e-05	3224
bin	2.87648e-05	4432
bin	2.8836e-05	3720
bin	2.89072e-05	3656
bin	2.89784e-05	3448
bin	2.90496e-05	4192
bin	2.91208e-05	3544
bin	2.9192e-05	3592
bin	2.92632e-05	4360
bin	2.93344e-05	3800
bin	2.94056e-05	3888
bin	2.94768e-05	3448
bin	2.9548e-05	4616
bin	2.96192e-05	3408
bin	2.96904e-05	3632
bin	2.97616e-05	3448
bin	2.98328e-05	4344
bin	2.9904e-05	3616
bin	2.99752e-05	4024
bin	3.00464e-05	4544
bin	3.01176e-05	4312
bin	3.01888e-05	3800
bin	3.026e-05	3968
bin	3.03312e-05	4872
bin	3.04024e-05	3896
bin	3.04736e-05	4056
bin	3.05448e-05	3816
bin	3.0616e-05	4840
bin	3.06872e-05	4224
bin	3.07584e-05	5072
bin	3.08296e-05	4800
bin	3.09008e-05	4232
bin	3.0972e-05	4168
bin	3.10432e-05	4440
bin	3.11144e-05	4792
bin	3.11856e-05	3960
bin	3.12568e-05	4792
bin	3.1328e-05	3608
bin	3.13992e-05	4216
bin	3.14704e-05	3376
bin	3.15416e-05	3776
bin	3.16128e-05	4104
bin	3.1684e-05	3376
bin	3.17552e-05	3288
bin	3.18264e-05	3536
bin	3.18976e-05	5064
bin	3.19688e-05	3560
bin	3.204e-05	4880
bin	3.21112e-05	3368
bin	3.21824e-05	4512
bin	3.22536e-05	4016
bin	3.23248e-05	3912
bin	3.2396e-05	4440
bin	3.24672e-05	3320
bin	3.25384e-05	3568
bin	3.26096e-05	3376
bin	3.26808e-05	3728
bin	3.2752e-05	3048
bin	3.28232e-05	3288
bin	3.28944e-05	3048
bin	3.29656e-05	3456
bin	3.30368e-05	2760
bin	3.3108e-05	3488
bin	3.31792e-05	3552
bin	3.32504e-05	2920
bin	3.33216e-05	2800
bin	3.33928e-05	3616
bin	3.3464e-05	3416
bin	3.35352e-05	2824
bin	3.36064e-05	3272
bin	3.36776e-05	2848
bin	3.37488e-05	3480
bin	3.382e-05	3072
bin	3.38912e-05	3120
bin	3.39624e-05	3584
bin	3.40336e-05	3024
bin	3.41048e-05	2840
bin	3.4176e-05	3400
bin	3.42472e-05	3472
bin	3.43184e-05	2840
bin	3.43896e-05	3264
bin	3.44608e-05	3040
bin	3.4532e-05	3504
bin	3.46032e-05	3032
bin	3.46744e-05	3352
bin	3.47456e-05	3328
bin	3.48168e-05	3000
bin	3.4888e-05	2784
bin	3.49592e-05	3296
bin	3.50304e-05	3560
bin	3.51016e-05	2976
bin	3.51728e-05	3064
bin	3.5244e-05	2600
bin	3.53152e-05	2992
bin	3.53864e-05	2928
bin	3.54576e-05	3224
bin	3.55288e-05	2808
bin	3.56e-05	1991616
statistic Torus3d_bub.timer 	"Life Times"
field count 6291456
field mean 8.0404739651001e-05
field stddev 6.1783971381236e-05
field sum 505.86288170573
field sqrsum 0.064689887277192
field min 5.2e-07
field max 0.00037709599865
bin	-INF	0
bin	0	11784
bin	8.544e-07	39896
bin	1.7088e-06	56808
bin	2.5632e-06	54152
bin	3.4176e-06	51296
bin	4.272e-06	55632
bin	5.1264e-06	57368
bin	5.9808e-06	65760
bin	6.8352e-06	61200
bin	7.6896e-06	64112
bin	8.544e-06	67240
bin	9.3984e-06	64824
bin	1.02528e-05	68224
bin	1.11072e-05	72152
bin	1.19616e-05	76584
bin	1.2816e-05	50440
bin	1.36704e-05	49048
bin	1.45248e-05	45208
bin	1.53792e-05	47552
bin	1.62336e-05	44200
bin	1.7088e-05	48408
bin	1.79424e-05	47544
bin	1.87968e-05	50000
bin	1.96512e-05	48288
bin	2.05056e-05	51256
bin	2.136e-05	49600
bin	2.22144e-05	52896
bin	2.30688e-05	53312
bin	2.39232e-05	51056
bin	2.47776e-05	48592
bin	2.5632e-05	39352
bin	2.64864e-05	35600
bin	2.73408e-05	37288
bin	2.81952e-05	34656
bin	2.90496e-05	29664
bin	2.9904e-05	31664
bin	3.07584e-05	30960
bin	3.16128e-05	30224
bin	3.24672e-05	29496
bin	3.33216e-05	30616
bin	3.4176e-05	31992
bin	3.50304e-05	30936
bin	3.58848e-05	33256
bin	3.67392e-05	33760
bin	3.75936e-05	31888
bin	3.8448e-05	30752
bin	3.93024e-05	32032
bin	4.01568e-05	32288
bin	4.10112e-05	30304
bin	4.18656e-05	32192
bin	4.272e-05	28376
bin	4.35744e-05	30064
bin	4.44288e-05	32024
bin	4.52832e-05	30720
bin	4.61376e-05	31376
bin	4.6992e-05	33024
bin	4.78464e-05	34432
bin	4.87008e-05	31768
bin	4.95552e-05	32680
bin	5.04096e-05	28864
bin	5.1264e-05	27224
bin	5.21184e-05	27216
bin	5.29728e-05	25560
bin	5.38272e-05	23648
bin	5.46816e-05	23624
bin	5.5536e-05	24952
bin	5.63904e-05	22424
bin	5.72448e-05	21536
bin	5.80992e-05	25712
bin	5.89536e-05	24968
bin	5.9808e-05	26288
bin	6.06624e-05	24496
bin	6.15168e-05	27648
bin	6.23712e-05	25608
bin	6.32256e-05	25392
bin	6.408e-05	25072
bin	6.49344e-05	28088
bin	6.57888e-05	25952
bin	6.66432e-05	24512
bin	6.74976e-05	27040
bin	6.8352e-05	25600
bin	6.92064e-05	25384
bin	7.00608e-05	27264
bin	7.09152e-05	26608
bin	7.17696e-05	27408
bin	7.2624e-05	27352
bin	7.34784e-05	25856
bin	7.43328e-05	25472
bin	7.51872e-05	26112
bin	7.60416e-05	25304
bin	7.6896e-05	24024
bin	7.77504e-05	23648
bin	7.86048e-05	23360
bin	7.94592e-05	21936
bin	8.03136e-05	23728
bin	8.1168e-05	23360
bin	8.20224e-05	23304
bin	8.28768e-05	24744
bin	8.37312e-05	26616
bin	8.45856e-05	26088
bin	8.544e-05	26016
bin	8.62944e-05	26528
bin	8.71488e-05	27624
bin	8.80032e-05	27560
bin	8.88576e-05	28264
bin	8.9712e-05	27424
bin	9.05664e-05	26576
bin	9.14208e-05	27704
bin	9.22752e-05	26744
bin	9.31296e-05	27016
bin	9.3984e-05	28648
bin	9.48384e-05	29736
bin	9.56928e-05	29856
bin	9.65472e-05	28216
bin	9.74016e-05	29024
bin	9.8256e-05	31024
bin	9.91104e-05	31120
bin	9.99648e-05	29200
bin	0.0001008192	26720
bin	0.0001016736	30056
bin	0.000102528	27584
bin	0.0001033824	27784
bin	0.0001042368	31408
bin	0.0001050912	28976
bin	0.0001059456	27920
bin	0.0001068	26928
bin	0.0001076544	26712
bin	0.0001085088	24440
bin	0.0001093632	24744
bin	0.0001102176	27000
bin	0.000111072	26432
bin	0.0001119264	25696
bin	0.0001127808	25912
bin	0.0001136352	22720
bin	0.0001144896	24352
bin	0.000115344	27272
bin	0.0001161984	25512
bin	0.0001170528	27976
bin	0.0001179072	26944
bin	0.0001187616	22024
bin	0.000119616	23208
bin	0.0001204704	25112
bin	0.0001213248	24664
bin	0.0001221792	25768
bin	0.0001230336	26896
bin	0.000123888	24704
bin	0.0001247424	22616
bin	0.0001255968	20248
bin	0.0001264512	19736
bin	0.0001273056	21584
bin	0.00012816	21752
bin	0.0001290144	20872
bin	0.0001298688	19696
bin	0.0001307232	19056
bin	0.0001315776	18640
bin	0.000132432	19880
bin	0.0001332864	19536
bin	0.0001341408	18440
bin	0.0001349952	18280
bin	0.0001358496	18240
bin	0.000136704	17760
bin	0.0001375584	17816
bin	0.0001384128	17624
bin	0.0001392672	17592
bin	0.0001401216	18744
bin	0.000140976	17176
bin	0.0001418304	17216
bin	0.0001426848	17072
bin	0.0001435392	16960
bin	0.0001443936	15928
bin	0.000145248	15960
bin	0.0001461024	15944
bin	0.0001469568	18416
bin	0.0001478112	18872
bin	0.0001486656	17720
bin	0.00014952	18816
bin	0.0001503744	16120
bin	0.0001512288	16256
bin	0.0001520832	15656
bin	0.0001529376	15496
bin	0.000153792	15696
bin	0.0001546464	15352
bin	0.0001555008	14600
bin	0.0001563552	14904
bin	0.0001572096	14464
bin	0.000158064	13888
bin	0.0001589184	14192
bin	0.0001597728	13528
bin	0.0001606272	13184
bin	0.0001614816	13928
bin	0.000162336	13040
bin	0.0001631904	13024
bin	0.0001640448	13352
bin	0.0001648992	12760
bin	0.0001657536	12920
bin	0.000166608	12968
bin	0.0001674624	12144
bin	0.0001683168	12488
bin	0.0001691712	12344
bin	0.0001700256	11680
bin	0.00017088	11504
bin	0.0001717344	11696
bin	0.0001725888	11560
bin	0.0001734432	11288
bin	0.0001742976	11280
bin	0.000175152	10800
bin	0.0001760064	10288
bin	0.0001768608	10200
bin	0.0001777152	10776
bin	0.0001785696	10064
bin	0.000179424	9992
bin	0.0001802784	9680
bin	0.0001811328	9528
bin	0.0001819872	9776
bin	0.0001828416	9784
bin	0.000183696	9448
bin	0.0001845504	9472
bin	0.0001854048	8960
bin	0.0001862592	8472
bin	0.0001871136	8800
bin	0.000187968	8984
bin	0.0001888224	8384
bin	0.0001896768	7944
bin	0.0001905312	7224
bin	0.0001913856	7296
bin	0.00019224	7304
bin	0.0001930944	6968
bin	0.0001939488	7208
bin	0.0001948032	6992
bin	0.0001956576	6592
bin	0.000196512	6632
bin	0.0001973664	6752
bin	0.0001982208	6312
bin	0.0001990752	6208
bin	0.0001999296	6528
bin	0.000200784	6360
bin	0.0002016384	6096
bin	0.0002024928	6064
bin	0.0002033472	6032
bin	0.0002042016	5368
bin	0.000205056	5272
bin	0.0002059104	5200
bin	0.0002067648	5152
bin	0.0002076192	5248
bin	0.0002084736	5552
bin	0.000209328	5592
bin	0.0002101824	5232
bin	0.0002110368	5000
bin	0.0002118912	4512
bin	0.0002127456	4496
bin	0.0002136	4104
bin	0.0002144544	3944
bin	0.0002153088	4024
bin	0.0002161632	4112
bin	0.0002170176	3960
bin	0.000217872	4248
bin	0.0002187264	4048
bin	0.0002195808	3824
bin	0.0002204352	3896
bin	0.0002212896	3784
bin	0.000222144	3520
bin	0.0002229984	3312
bin	0.0002238528	3424
bin	0.0002247072	3272
bin	0.0002255616	3232
bin	0.000226416	3056
bin	0.0002272704	3040
bin	0.0002281248	3136
bin	0.0002289792	3136
bin	0.0002298336	3016
bin	0.000230688	3008
bin	0.0002315424	3024
bin	0.0002323968	2600
bin	0.0002332512	2624
bin	0.0002341056	2784
bin	0.00023496	2808
bin	0.0002358144	2856
bin	0.0002366688	2776
bin	0.0002375232	2624
bin	0.0002383776	2704
bin	0.000239232	2712
bin	0.0002400864	2672
bin	0.0002409408	2488
bin	0.0002417952	2464
bin	0.0002426496	2320
bin	0.000243504	2336
bin	0.0002443584	2440
bin	0.0002452128	2352
bin	0.0002460672	2168
bin	0.0002469216	1896
bin	0.000247776	1816
bin	0.0002486304	1928
bin	0.0002494848	1944
bin	0.0002503392	1880
bin	0.0002511936	1792
bin	0.000252048	1688
bin	0.0002529024	1704
bin	0.0002537568	1664
bin	0.0002546112	1632
bin	0.0002554656	1720
bin	0.00025632	1552
bin	0.0002571744	1480
bin	0.0002580288	1352
bin	0.0002588832	1408
bin	0.0002597376	1160
bin	0.000260592	1232
bin	0.0002614464	1224
bin	0.0002623008	1248
bin	0.0002631552	1400
bin	0.0002640096	1272
bin	0.000264864	1200
bin	0.0002657184	1136
bin	0.0002665728	1000
bin	0.0002674272	944
bin	0.0002682816	912
bin	0.000269136	792
bin	0.0002699904	912
bin	0.0002708448	888
bin	0.0002716992	904
bin	0.0002725536	792
bin	0.000273408	664
bin	0.0002742624	760
bin	0.0002751168	720
bin	0.0002759712	672
bin	0.0002768256	752
bin	0.00027768	680
bin	0.0002785344	704
bin	0.0002793888	664
bin	0.0002802432	528
bin	0.0002810976	424
bin	0.000281952	424
bin	0.0002828064	336
bin	0.0002836608	368
bin	0.0002845152	344
bin	0.0002853696	432
bin	0.000286224	376
bin	0.0002870784	368
bin	0.0002879328	432
bin	0.0002887872	480
bin	0.0002896416	424
bin	0.000290496	440
bin	0.0002913504	496
bin	0.0002922048	384
bin	0.0002930592	456
bin	0.0002939136	448
bin	0.000294768	408
bin	0.0002956224	368
bin	0.0002964768	328
bin	0.0002973312	320
bin	0.0002981856	320
bin	0.00029904	320
bin	0.0002998944	376
bin	0.0003007488	288
bin	0.0003016032	256
bin	0.0003024576	256
bin	0.000303312	304
bin	0.0003041664	248
bin	0.0003050208	240
bin	0.0003058752	256
bin	0.0003067296	328
bin	0.000307584	256
bin	0.0003084384	232
bin	0.0003092928	232
bin	0.0003101472	152
bin	0.0003110016	152
bin	0.000311856	160
bin	0.0003127104	152
bin	0.0003135648	208
bin	0.0003144192	200
bin	0.0003152736	184
bin	0.000316128	232
bin	0.0003169824	184
bin	0.0003178368	200
bin	0.0003186912	176
bin	0.0003195456	200
bin	0.0003204	144
bin	0.0003212544	160
bin	0.0003221088	104
bin	0.0003229632	128
bin	0.0003238176	56
bin	0.000324672	64
bin	0.0003255264	48
bin	0.0003263808	96
bin	0.0003272352	104
bin	0.0003280896	104
bin	0.000328944	96
bin	0.0003297984	64
bin	0.0003306528	48
bin	0.0003315072	40
bin	0.0003323616	24
bin	0.000333216	32
bin	0.0003340704	40
bin	0.0003349248	32
bin	0.0003357792	40
bin	0.0003366336	48
bin	0.000337488	48
bin	0.0003383424	48
bin	0.0003391968	24
bin	0.0003400512	64
bin	0.0003409056	72
bin	0.00034176	48
bin	0.0003426144	32
bin	0.0003434688	24
bin	0.0003443232	24
bin	0.0003451776	32
bin	0.000346032	24
bin	0.0003468864	24
bin	0.0003477408	32
bin	0.0003485952	24
bin	0.0003494496	24
bin	0.000350304	40
bin	0.0003511584	24
bin	0.0003520128	8
bin	0.0003528672	8
bin	0.0003537216	0
bin	0.000354576	0
bin	0.0003554304	0
bin	0.0003562848	0
bin	0.0003571392	8
bin	0.0003579936	0
bin	0.000358848	16
bin	0.0003597024	8
bin	0.0003605568	8
bin	0.0003614112	16
bin	0.0003622656	16
bin	0.00036312	16
bin	0.0003639744	0
bin	0.0003648288	0
bin	0.0003656832	0
bin	0.0003665376	0
bin	0.000367392	0
bin	0.0003682464	0
bin	0.0003691008	0
bin	0.0003699552	0
bin	0.0003708096	0
bin	0.000371664	0
bin	0.0003725184	0
bin	0.0003733728	0
bin	0.0003742272	0
bin	0.0003750816	0
bin	0.000375936	24
bin	0.0003767904	16
bin	0.0003776448	0
bin	0.0003784992	0
bin	0.0003793536	0
bin	0.000380208	0
bin	0.0003810624	0
bin	0.0003819168	0
bin	0.0003827712	0
bin	0.0003836256	0
bin	0.00038448	0
bin	0.0003853344	0
bin	0.0003861888	0
bin	0.0003870432	0
bin	0.0003878976	0
bin	0.000388752	0
bin	0.0003896064	0
bin	0.0003904608	0
bin	0.0003913152	0
bin	0.0003921696	0
bin	0.000393024	0
bin	0.0003938784	0
bin	0.0003947328	0
bin	0.0003955872	0
bin	0.0003964416	0
bin	0.000397296	0
bin	0.0003981504	0
bin	0.0003990048	0
bin	0.0003998592	0
bin	0.0004007136	0
bin	0.000401568	0
bin	0.0004024224	0
bin	0.0004032768	0
bin	0.0004041312	0
bin	0.0004049856	0
bin	0.00040584	0
bin	0.0004066944	0
bin	0.0004075488	0
bin	0.0004084032	0
bin	0.0004092576	0
bin	0.000410112	0
bin	0.0004109664	0
bin	0.0004118208	0
bin	0.0004126752	0
bin	0.0004135296	0
bin	0.000414384	0
bin	0.0004152384	0
bin	0.0004160928	0
bin	0.0004169472	0
bin	0.0004178016	0
bin	0.000418656	0
bin	0.0004195104	0
bin	0.0004203648	0
bin	0.0004212192	0
bin	0.0004220736	0
bin	0.000422928	0
bin	0.0004237824	0
bin	0.0004246368	0
bin	0.0004254912	0
bin	0.0004263456	0
bin	0.0004272	0
