version 2
run Butterfly-140-20120709-14:00:50-24184
attr alg 0
attr buf 8
attr configname Butterfly
attr datetime 20120709-14:00:50
attr delta 2.4
attr experiment Butterfly
attr ext false
attr inifile altro.ini
attr iterationvars "$buf=8, $ext=false, $ofedge=1, $delta=2.4, $alg=0"
attr iterationvars2 "$buf=8, $ext=false, $ofedge=1, $delta=2.4, $alg=0, $repetition=0"
attr measurement "$buf=8, $ext=false, $ofedge=1, $delta=2.4, $alg=0"
attr network Torus3d_bub
attr ofedge 1
attr processid 24184
attr repetition 0
attr replication #0
attr resultdir altro-results
attr runnumber 140
attr seedset 140

scalar . 	alg 	0
scalar . 	buf 	8
scalar . 	delta 	2.4
scalar . 	ofedge 	1
scalar Torus3d_bub.timer 	#endTime 	0.000962821665205
scalar Torus3d_bub.timer 	#totalHops 	23592960
scalar Torus3d_bub.timer 	#totalPacks 	6291456
scalar Torus3d_bub.timer 	#totalDerouted 	0
scalar Torus3d_bub.timer 	#totalOutFlanked 	0
scalar Torus3d_bub.timer 	#totalCQRed 	0
scalar Torus3d_bub.timer 	#LB 	0.000786432
scalar Torus3d_bub.timer 	#ratio 	0.81679923543531
statistic Torus3d_bub.timer 	"Hop Times"
field count 6291456
field mean 0.00010083189815823
field stddev 0.00010222286098088
field sum 634.37945065901
field sqrsum 0.12970832690615
field min 5.2e-07
field max 0.000641878331998
bin	-INF	0
bin	0	0
bin	7.12e-08	0
bin	1.424e-07	0
bin	2.136e-07	0
bin	2.848e-07	0
bin	3.56e-07	0
bin	4.272e-07	0
bin	4.984e-07	4096
bin	5.696e-07	2048
bin	6.408e-07	0
bin	7.12e-07	6144
bin	7.832e-07	0
bin	8.544e-07	0
bin	9.256e-07	0
bin	9.968e-07	4096
bin	1.068e-06	0
bin	1.1392e-06	2048
bin	1.2104e-06	3072
bin	1.2816e-06	5120
bin	1.3528e-06	3072
bin	1.424e-06	2048
bin	1.4952e-06	9216
bin	1.5664e-06	2048
bin	1.6376e-06	6656
bin	1.7088e-06	2048
bin	1.78e-06	9728
bin	1.8512e-06	2048
bin	1.9224e-06	4160
bin	1.9936e-06	7232
bin	2.0648e-06	5632
bin	2.136e-06	4800
bin	2.2072e-06	1792
bin	2.2784e-06	9216
bin	2.3496e-06	3904
bin	2.4208e-06	2304
bin	2.492e-06	704
bin	2.5632e-06	9344
bin	2.6344e-06	2368
bin	2.7056e-06	5128
bin	2.7768e-06	4680
bin	2.848e-06	6792
bin	2.9192e-06	6680
bin	2.9904e-06	5448
bin	3.0616e-06	9552
bin	3.1328e-06	4432
bin	3.204e-06	6048
bin	3.2752e-06	2456
bin	3.3464e-06	10640
bin	3.4176e-06	1504
bin	3.4888e-06	4776
bin	3.56e-06	5408
bin	3.6312e-06	7040
bin	3.7024e-06	3968
bin	3.7736e-06	1488
bin	3.8448e-06	7856
bin	3.916e-06	2896
bin	3.9872e-06	5376
bin	4.0584e-06	2568
bin	4.1296e-06	8488
bin	4.2008e-06	2192
bin	4.272e-06	3696
bin	4.3432e-06	6168
bin	4.4144e-06	6856
bin	4.4856e-06	4664
bin	4.5568e-06	2504
bin	4.628e-06	10472
bin	4.6992e-06	4544
bin	4.7704e-06	3616
bin	4.8416e-06	1928
bin	4.9128e-06	8952
bin	4.984e-06	1968
bin	5.0552e-06	5432
bin	5.1264e-06	4576
bin	5.1976e-06	5800
bin	5.2688e-06	4240
bin	5.34e-06	2368
bin	5.4112e-06	8984
bin	5.4824e-06	1944
bin	5.5536e-06	4896
bin	5.6248e-06	888
bin	5.696e-06	7848
bin	5.7672e-06	936
bin	5.8384e-06	3184
bin	5.9096e-06	3440
bin	5.9808e-06	6416
bin	6.052e-06	3696
bin	6.1232e-06	1056
bin	6.1944e-06	8704
bin	6.2656e-06	1432
bin	6.3368e-06	3096
bin	6.408e-06	808
bin	6.4792e-06	8784
bin	6.5504e-06	1392
bin	6.6216e-06	3696
bin	6.6928e-06	5256
bin	6.764e-06	7456
bin	6.8352e-06	4736
bin	6.9064e-06	984
bin	6.9776e-06	8520
bin	7.0488e-06	1808
bin	7.12e-06	5264
bin	7.1912e-06	2240
bin	7.2624e-06	9224
bin	7.3336e-06	2280
bin	7.4048e-06	1384
bin	7.476e-06	2952
bin	7.5472e-06	5904
bin	7.6184e-06	3192
bin	7.6896e-06	1136
bin	7.7608e-06	6208
bin	7.832e-06	1704
bin	7.9032e-06	2128
bin	7.9744e-06	1464
bin	8.0456e-06	9104
bin	8.1168e-06	3176
bin	8.188e-06	2880
bin	8.2592e-06	3312
bin	8.3304e-06	6416
bin	8.4016e-06	2864
bin	8.4728e-06	2040
bin	8.544e-06	8016
bin	8.6152e-06	3152
bin	8.6864e-06	2616
bin	8.7576e-06	2112
bin	8.8288e-06	7368
bin	8.9e-06	3344
bin	8.9712e-06	1984
bin	9.0424e-06	3536
bin	9.1136e-06	5480
bin	9.1848e-06	1248
bin	9.256e-06	2304
bin	9.3272e-06	8744
bin	9.3984e-06	2840
bin	9.4696e-06	2264
bin	9.5408e-06	2792
bin	9.612e-06	7696
bin	9.6832e-06	3368
bin	9.7544e-06	2480
bin	9.8256e-06	2728
bin	9.8968e-06	7592
bin	9.968e-06	2752
bin	1.00392e-05	3664
bin	1.01104e-05	6272
bin	1.01816e-05	3240
bin	1.02528e-05	1360
bin	1.0324e-05	2840
bin	1.03952e-05	6952
bin	1.04664e-05	2616
bin	1.05376e-05	3888
bin	1.06088e-05	2832
bin	1.068e-05	7688
bin	1.07512e-05	2792
bin	1.08224e-05	2480
bin	1.08936e-05	6344
bin	1.09648e-05	1512
bin	1.1036e-05	2608
bin	1.11072e-05	4336
bin	1.11784e-05	6712
bin	1.12496e-05	5032
bin	1.13208e-05	4552
bin	1.1392e-05	5368
bin	1.14632e-05	3800
bin	1.15344e-05	3864
bin	1.16056e-05	1880
bin	1.16768e-05	4768
bin	1.1748e-05	3592
bin	1.18192e-05	3240
bin	1.18904e-05	2904
bin	1.19616e-05	6408
bin	1.20328e-05	3024
bin	1.2104e-05	3624
bin	1.21752e-05	3480
bin	1.22464e-05	5736
bin	1.23176e-05	2528
bin	1.23888e-05	2424
bin	1.246e-05	4792
bin	1.25312e-05	3152
bin	1.26024e-05	1896
bin	1.26736e-05	3624
bin	1.27448e-05	5496
bin	1.2816e-05	2072
bin	1.28872e-05	3416
bin	1.29584e-05	3112
bin	1.30296e-05	5736
bin	1.31008e-05	1856
bin	1.3172e-05	2984
bin	1.32432e-05	3560
bin	1.33144e-05	4880
bin	1.33856e-05	3360
bin	1.34568e-05	5800
bin	1.3528e-05	4560
bin	1.35992e-05	3312
bin	1.36704e-05	4104
bin	1.37416e-05	3880
bin	1.38128e-05	3768
bin	1.3884e-05	2752
bin	1.39552e-05	4456
bin	1.40264e-05	4088
bin	1.40976e-05	4504
bin	1.41688e-05	3048
bin	1.424e-05	4680
bin	1.43112e-05	5632
bin	1.43824e-05	2744
bin	1.44536e-05	4920
bin	1.45248e-05	3408
bin	1.4596e-05	5224
bin	1.46672e-05	3016
bin	1.47384e-05	4696
bin	1.48096e-05	2656
bin	1.48808e-05	2912
bin	1.4952e-05	1568
bin	1.50232e-05	2784
bin	1.50944e-05	2824
bin	1.51656e-05	1688
bin	1.52368e-05	3016
bin	1.5308e-05	1952
bin	1.53792e-05	2600
bin	1.54504e-05	2192
bin	1.55216e-05	2760
bin	1.55928e-05	2208
bin	1.5664e-05	2960
bin	1.57352e-05	1528
bin	1.58064e-05	3160
bin	1.58776e-05	2512
bin	1.59488e-05	2864
bin	1.602e-05	1968
bin	1.60912e-05	3088
bin	1.61624e-05	2192
bin	1.62336e-05	3040
bin	1.63048e-05	3808
bin	1.6376e-05	3528
bin	1.64472e-05	3248
bin	1.65184e-05	3288
bin	1.65896e-05	4312
bin	1.66608e-05	3640
bin	1.6732e-05	3400
bin	1.68032e-05	4416
bin	1.68744e-05	5496
bin	1.69456e-05	4208
bin	1.70168e-05	4008
bin	1.7088e-05	3504
bin	1.71592e-05	4784
bin	1.72304e-05	4704
bin	1.73016e-05	3872
bin	1.73728e-05	3680
bin	1.7444e-05	4368
bin	1.75152e-05	3776
bin	1.75864e-05	4136
bin	1.76576e-05	4184
bin	1.77288e-05	3200
bin	1.78e-05	3448
bin	1.78712e-05	2944
bin	1.79424e-05	3200
bin	1.80136e-05	3528
bin	1.80848e-05	2752
bin	1.8156e-05	3144
bin	1.82272e-05	3536
bin	1.82984e-05	2520
bin	1.83696e-05	3112
bin	1.84408e-05	3408
bin	1.8512e-05	2512
bin	1.85832e-05	2648
bin	1.86544e-05	2392
bin	1.87256e-05	2800
bin	1.87968e-05	2384
bin	1.8868e-05	3560
bin	1.89392e-05	3512
bin	1.90104e-05	2792
bin	1.90816e-05	3288
bin	1.91528e-05	4232
bin	1.9224e-05	3544
bin	1.92952e-05	3056
bin	1.93664e-05	2952
bin	1.94376e-05	3480
bin	1.95088e-05	3184
bin	1.958e-05	3808
bin	1.96512e-05	2928
bin	1.97224e-05	3608
bin	1.97936e-05	3872
bin	1.98648e-05	3192
bin	1.9936e-05	3776
bin	2.00072e-05	3400
bin	2.00784e-05	2984
bin	2.01496e-05	3016
bin	2.02208e-05	3120
bin	2.0292e-05	3208
bin	2.03632e-05	2872
bin	2.04344e-05	3288
bin	2.05056e-05	3024
bin	2.05768e-05	3248
bin	2.0648e-05	2824
bin	2.07192e-05	2880
bin	2.07904e-05	3016
bin	2.08616e-05	2888
bin	2.09328e-05	3176
bin	2.1004e-05	3168
bin	2.10752e-05	3208
bin	2.11464e-05	3000
bin	2.12176e-05	3144
bin	2.12888e-05	3024
bin	2.136e-05	3208
bin	2.14312e-05	2888
bin	2.15024e-05	2656
bin	2.15736e-05	2808
bin	2.16448e-05	2784
bin	2.1716e-05	2784
bin	2.17872e-05	2904
bin	2.18584e-05	3672
bin	2.19296e-05	2760
bin	2.20008e-05	3520
bin	2.2072e-05	3112
bin	2.21432e-05	3184
bin	2.22144e-05	2632
bin	2.22856e-05	3392
bin	2.23568e-05	3136
bin	2.2428e-05	3128
bin	2.24992e-05	2984
bin	2.25704e-05	3504
bin	2.26416e-05	3168
bin	2.27128e-05	2680
bin	2.2784e-05	4000
bin	2.28552e-05	2776
bin	2.29264e-05	2888
bin	2.29976e-05	2984
bin	2.30688e-05	3664
bin	2.314e-05	2952
bin	2.32112e-05	3304
bin	2.32824e-05	3040
bin	2.33536e-05	3832
bin	2.34248e-05	3112
bin	2.3496e-05	3072
bin	2.35672e-05	3536
bin	2.36384e-05	3184
bin	2.37096e-05	3152
bin	2.37808e-05	3712
bin	2.3852e-05	4128
bin	2.39232e-05	2856
bin	2.39944e-05	4008
bin	2.40656e-05	3664
bin	2.41368e-05	4272
bin	2.4208e-05	4064
bin	2.42792e-05	2840
bin	2.43504e-05	4096
bin	2.44216e-05	3312
bin	2.44928e-05	3800
bin	2.4564e-05	2824
bin	2.46352e-05	4128
bin	2.47064e-05	3528
bin	2.47776e-05	2784
bin	2.48488e-05	3560
bin	2.492e-05	3552
bin	2.49912e-05	3304
bin	2.50624e-05	3376
bin	2.51336e-05	4072
bin	2.52048e-05	3032
bin	2.5276e-05	3512
bin	2.53472e-05	3376
bin	2.54184e-05	4200
bin	2.54896e-05	4480
bin	2.55608e-05	4128
bin	2.5632e-05	4328
bin	2.57032e-05	3840
bin	2.57744e-05	4640
bin	2.58456e-05	3760
bin	2.59168e-05	3808
bin	2.5988e-05	3576
bin	2.60592e-05	4368
bin	2.61304e-05	3464
bin	2.62016e-05	4544
bin	2.62728e-05	4840
bin	2.6344e-05	3824
bin	2.64152e-05	4384
bin	2.64864e-05	4832
bin	2.65576e-05	3976
bin	2.66288e-05	3632
bin	2.67e-05	4864
bin	2.67712e-05	4320
bin	2.68424e-05	4024
bin	2.69136e-05	3656
bin	2.69848e-05	4200
bin	2.7056e-05	4392
bin	2.71272e-05	4352
bin	2.71984e-05	4304
bin	2.72696e-05	4232
bin	2.73408e-05	4136
bin	2.7412e-05	3784
bin	2.74832e-05	4872
bin	2.75544e-05	4048
bin	2.76256e-05	4072
bin	2.76968e-05	3784
bin	2.7768e-05	4280
bin	2.78392e-05	3888
bin	2.79104e-05	4632
bin	2.79816e-05	5280
bin	2.80528e-05	4112
bin	2.8124e-05	4240
bin	2.81952e-05	3720
bin	2.82664e-05	4448
bin	2.83376e-05	4408
bin	2.84088e-05	4008
bin	2.848e-05	4824
bin	2.85512e-05	4704
bin	2.86224e-05	3512
bin	2.86936e-05	3616
bin	2.87648e-05	4960
bin	2.8836e-05	3712
bin	2.89072e-05	3416
bin	2.89784e-05	4264
bin	2.90496e-05	4056
bin	2.91208e-05	3608
bin	2.9192e-05	3424
bin	2.92632e-05	4560
bin	2.93344e-05	4336
bin	2.94056e-05	3800
bin	2.94768e-05	3440
bin	2.9548e-05	4984
bin	2.96192e-05	4032
bin	2.96904e-05	3568
bin	2.97616e-05	4808
bin	2.98328e-05	4224
bin	2.9904e-05	4088
bin	2.99752e-05	3672
bin	3.00464e-05	4144
bin	3.01176e-05	4304
bin	3.01888e-05	3664
bin	3.026e-05	3440
bin	3.03312e-05	4512
bin	3.04024e-05	4312
bin	3.04736e-05	3800
bin	3.05448e-05	3968
bin	3.0616e-05	4232
bin	3.06872e-05	4008
bin	3.07584e-05	3392
bin	3.08296e-05	3696
bin	3.09008e-05	3624
bin	3.0972e-05	3560
bin	3.10432e-05	2816
bin	3.11144e-05	3920
bin	3.11856e-05	3688
bin	3.12568e-05	3440
bin	3.1328e-05	3992
bin	3.13992e-05	3536
bin	3.14704e-05	3776
bin	3.15416e-05	2848
bin	3.16128e-05	4144
bin	3.1684e-05	3896
bin	3.17552e-05	3064
bin	3.18264e-05	3352
bin	3.18976e-05	4040
bin	3.19688e-05	4776
bin	3.204e-05	4896
bin	3.21112e-05	4488
bin	3.21824e-05	4760
bin	3.22536e-05	4840
bin	3.23248e-05	3744
bin	3.2396e-05	4928
bin	3.24672e-05	4288
bin	3.25384e-05	4952
bin	3.26096e-05	3928
bin	3.26808e-05	4824
bin	3.2752e-05	4328
bin	3.28232e-05	4160
bin	3.28944e-05	4712
bin	3.29656e-05	3808
bin	3.30368e-05	4720
bin	3.3108e-05	3720
bin	3.31792e-05	5768
bin	3.32504e-05	4720
bin	3.33216e-05	5112
bin	3.33928e-05	4944
bin	3.3464e-05	4176
bin	3.35352e-05	4792
bin	3.36064e-05	4416
bin	3.36776e-05	4824
bin	3.37488e-05	3960
bin	3.382e-05	5784
bin	3.38912e-05	4216
bin	3.39624e-05	5424
bin	3.40336e-05	5360
bin	3.41048e-05	4624
bin	3.4176e-05	4440
bin	3.42472e-05	4704
bin	3.43184e-05	4464
bin	3.43896e-05	4688
bin	3.44608e-05	5224
bin	3.4532e-05	5024
bin	3.46032e-05	4472
bin	3.46744e-05	4152
bin	3.47456e-05	4032
bin	3.48168e-05	3936
bin	3.4888e-05	4112
bin	3.49592e-05	3800
bin	3.50304e-05	4000
bin	3.51016e-05	3880
bin	3.51728e-05	4080
bin	3.5244e-05	4376
bin	3.53152e-05	4160
bin	3.53864e-05	4784
bin	3.54576e-05	3784
bin	3.55288e-05	4360
bin	3.56e-05	4377424
statistic Torus3d_bub.timer 	"Life Times"
field count 6291456
field mean 0.00022590634195909
field stddev 0.00013208904870283
field sum 1421.2798105566
field sqrsum 0.43084638963167
field min 5.2e-07
field max 0.000653918665205
bin	-INF	0
bin	0	8192
bin	8.544e-07	16384
bin	1.7088e-06	16384
bin	2.5632e-06	24576
bin	3.4176e-06	23040
bin	4.272e-06	21760
bin	5.1264e-06	28416
bin	5.9808e-06	31488
bin	6.8352e-06	26112
bin	7.6896e-06	25344
bin	8.544e-06	32512
bin	9.3984e-06	22208
bin	1.02528e-05	23584
bin	1.11072e-05	20576
bin	1.19616e-05	25824
bin	1.2816e-05	17216
bin	1.36704e-05	15200
bin	1.45248e-05	8672
bin	1.53792e-05	6808
bin	1.62336e-05	6472
bin	1.7088e-05	8088
bin	1.79424e-05	6264
bin	1.87968e-05	4600
bin	1.96512e-05	4104
bin	2.05056e-05	5376
bin	2.136e-05	7208
bin	2.22144e-05	6968
bin	2.30688e-05	8904
bin	2.39232e-05	9144
bin	2.47776e-05	10416
bin	2.5632e-05	10664
bin	2.64864e-05	12152
bin	2.73408e-05	9384
bin	2.81952e-05	14584
bin	2.90496e-05	15080
bin	2.9904e-05	11408
bin	3.07584e-05	11328
bin	3.16128e-05	11960
bin	3.24672e-05	8056
bin	3.33216e-05	8760
bin	3.4176e-05	7904
bin	3.50304e-05	9312
bin	3.58848e-05	9248
bin	3.67392e-05	9168
bin	3.75936e-05	8880
bin	3.8448e-05	7328
bin	3.93024e-05	7696
bin	4.01568e-05	6744
bin	4.10112e-05	4256
bin	4.18656e-05	4224
bin	4.272e-05	3696
bin	4.35744e-05	4672
bin	4.44288e-05	4912
bin	4.52832e-05	4072
bin	4.61376e-05	3912
bin	4.6992e-05	3264
bin	4.78464e-05	3648
bin	4.87008e-05	5176
bin	4.95552e-05	5432
bin	5.04096e-05	4856
bin	5.1264e-05	5616
bin	5.21184e-05	7064
bin	5.29728e-05	6336
bin	5.38272e-05	7320
bin	5.46816e-05	4608
bin	5.5536e-05	4032
bin	5.63904e-05	4736
bin	5.72448e-05	5640
bin	5.80992e-05	5208
bin	5.89536e-05	3504
bin	5.9808e-05	5248
bin	6.06624e-05	8680
bin	6.15168e-05	4840
bin	6.23712e-05	6016
bin	6.32256e-05	7192
bin	6.408e-05	10248
bin	6.49344e-05	9032
bin	6.57888e-05	10016
bin	6.66432e-05	10112
bin	6.74976e-05	11160
bin	6.8352e-05	11568
bin	6.92064e-05	8104
bin	7.00608e-05	9392
bin	7.09152e-05	11200
bin	7.17696e-05	11248
bin	7.2624e-05	11024
bin	7.34784e-05	9008
bin	7.43328e-05	12704
bin	7.51872e-05	12512
bin	7.60416e-05	12456
bin	7.6896e-05	11248
bin	7.77504e-05	15376
bin	7.86048e-05	16640
bin	7.94592e-05	14280
bin	8.03136e-05	14208
bin	8.1168e-05	13280
bin	8.20224e-05	14024
bin	8.28768e-05	11840
bin	8.37312e-05	14848
bin	8.45856e-05	13536
bin	8.544e-05	12192
bin	8.62944e-05	11928
bin	8.71488e-05	11208
bin	8.80032e-05	10176
bin	8.88576e-05	13008
bin	8.9712e-05	13736
bin	9.05664e-05	11488
bin	9.14208e-05	10648
bin	9.22752e-05	9128
bin	9.31296e-05	8048
bin	9.3984e-05	10408
bin	9.48384e-05	10600
bin	9.56928e-05	11536
bin	9.65472e-05	10360
bin	9.74016e-05	9664
bin	9.8256e-05	11496
bin	9.91104e-05	9456
bin	9.99648e-05	8480
bin	0.0001008192	8264
bin	0.0001016736	10240
bin	0.000102528	9000
bin	0.0001033824	10632
bin	0.0001042368	11096
bin	0.0001050912	11512
bin	0.0001059456	12144
bin	0.0001068	13888
bin	0.0001076544	14240
bin	0.0001085088	13120
bin	0.0001093632	12872
bin	0.0001102176	14688
bin	0.000111072	14776
bin	0.0001119264	13176
bin	0.0001127808	15096
bin	0.0001136352	12488
bin	0.0001144896	11280
bin	0.000115344	10536
bin	0.0001161984	9920
bin	0.0001170528	9800
bin	0.0001179072	9520
bin	0.0001187616	7496
bin	0.000119616	7344
bin	0.0001204704	7640
bin	0.0001213248	8024
bin	0.0001221792	6872
bin	0.0001230336	6792
bin	0.000123888	6920
bin	0.0001247424	7520
bin	0.0001255968	7600
bin	0.0001264512	8000
bin	0.0001273056	8856
bin	0.00012816	12120
bin	0.0001290144	13176
bin	0.0001298688	14024
bin	0.0001307232	14704
bin	0.0001315776	15736
bin	0.000132432	17976
bin	0.0001332864	16648
bin	0.0001341408	16696
bin	0.0001349952	19368
bin	0.0001358496	18736
bin	0.000136704	17760
bin	0.0001375584	19144
bin	0.0001384128	16848
bin	0.0001392672	15376
bin	0.0001401216	15400
bin	0.000140976	14272
bin	0.0001418304	13928
bin	0.0001426848	12448
bin	0.0001435392	12144
bin	0.0001443936	11336
bin	0.000145248	13288
bin	0.0001461024	11520
bin	0.0001469568	11432
bin	0.0001478112	11576
bin	0.0001486656	11664
bin	0.00014952	12304
bin	0.0001503744	14712
bin	0.0001512288	15272
bin	0.0001520832	14800
bin	0.0001529376	14240
bin	0.000153792	14320
bin	0.0001546464	14136
bin	0.0001555008	14848
bin	0.0001563552	14224
bin	0.0001572096	13936
bin	0.000158064	13168
bin	0.0001589184	12568
bin	0.0001597728	13160
bin	0.0001606272	12184
bin	0.0001614816	11280
bin	0.000162336	12040
bin	0.0001631904	13448
bin	0.0001640448	13592
bin	0.0001648992	11808
bin	0.0001657536	11416
bin	0.000166608	11288
bin	0.0001674624	10856
bin	0.0001683168	10992
bin	0.0001691712	10888
bin	0.0001700256	11672
bin	0.00017088	11120
bin	0.0001717344	10960
bin	0.0001725888	10888
bin	0.0001734432	11448
bin	0.0001742976	12256
bin	0.000175152	11904
bin	0.0001760064	11960
bin	0.0001768608	12232
bin	0.0001777152	12968
bin	0.0001785696	13352
bin	0.000179424	12264
bin	0.0001802784	12952
bin	0.0001811328	12656
bin	0.0001819872	12424
bin	0.0001828416	12584
bin	0.000183696	12968
bin	0.0001845504	12048
bin	0.0001854048	12520
bin	0.0001862592	12944
bin	0.0001871136	12368
bin	0.000187968	12576
bin	0.0001888224	12560
bin	0.0001896768	12608
bin	0.0001905312	12560
bin	0.0001913856	12568
bin	0.00019224	12824
bin	0.0001930944	13056
bin	0.0001939488	13144
bin	0.0001948032	12984
bin	0.0001956576	13520
bin	0.000196512	13176
bin	0.0001973664	13152
bin	0.0001982208	13352
bin	0.0001990752	14368
bin	0.0001999296	14920
bin	0.000200784	14976
bin	0.0002016384	14848
bin	0.0002024928	15640
bin	0.0002033472	15472
bin	0.0002042016	15344
bin	0.000205056	15760
bin	0.0002059104	15872
bin	0.0002067648	15936
bin	0.0002076192	16032
bin	0.0002084736	16464
bin	0.000209328	15688
bin	0.0002101824	16744
bin	0.0002110368	16288
bin	0.0002118912	15640
bin	0.0002127456	15896
bin	0.0002136	15512
bin	0.0002144544	15656
bin	0.0002153088	15256
bin	0.0002161632	14896
bin	0.0002170176	14776
bin	0.000217872	14104
bin	0.0002187264	13672
bin	0.0002195808	13008
bin	0.0002204352	13400
bin	0.0002212896	13016
bin	0.000222144	12368
bin	0.0002229984	12912
bin	0.0002238528	12344
bin	0.0002247072	12416
bin	0.0002255616	12432
bin	0.000226416	12496
bin	0.0002272704	12704
bin	0.0002281248	12704
bin	0.0002289792	12624
bin	0.0002298336	12952
bin	0.000230688	12968
bin	0.0002315424	13656
bin	0.0002323968	13904
bin	0.0002332512	13440
bin	0.0002341056	14336
bin	0.00023496	14608
bin	0.0002358144	14048
bin	0.0002366688	13696
bin	0.0002375232	14176
bin	0.0002383776	14392
bin	0.000239232	14432
bin	0.0002400864	14320
bin	0.0002409408	14584
bin	0.0002417952	14128
bin	0.0002426496	14488
bin	0.000243504	14048
bin	0.0002443584	13872
bin	0.0002452128	13960
bin	0.0002460672	14080
bin	0.0002469216	14080
bin	0.000247776	13624
bin	0.0002486304	13384
bin	0.0002494848	13240
bin	0.0002503392	13208
bin	0.0002511936	13136
bin	0.000252048	13360
bin	0.0002529024	13496
bin	0.0002537568	13672
bin	0.0002546112	13832
bin	0.0002554656	14088
bin	0.00025632	14296
bin	0.0002571744	14536
bin	0.0002580288	14808
bin	0.0002588832	14456
bin	0.0002597376	14640
bin	0.000260592	15072
bin	0.0002614464	14688
bin	0.0002623008	14520
bin	0.0002631552	14376
bin	0.0002640096	13944
bin	0.000264864	14624
bin	0.0002657184	14880
bin	0.0002665728	14016
bin	0.0002674272	13688
bin	0.0002682816	13848
bin	0.000269136	13864
bin	0.0002699904	13800
bin	0.0002708448	14072
bin	0.0002716992	13912
bin	0.0002725536	13920
bin	0.000273408	14496
bin	0.0002742624	14648
bin	0.0002751168	14752
bin	0.0002759712	14752
bin	0.0002768256	14624
bin	0.00027768	14968
bin	0.0002785344	15072
bin	0.0002793888	15440
bin	0.0002802432	14568
bin	0.0002810976	14896
bin	0.000281952	14912
bin	0.0002828064	14912
bin	0.0002836608	14520
bin	0.0002845152	13968
bin	0.0002853696	13736
bin	0.000286224	13784
bin	0.0002870784	14072
bin	0.0002879328	14368
bin	0.0002887872	14152
bin	0.0002896416	13824
bin	0.000290496	13672
bin	0.0002913504	14200
bin	0.0002922048	13496
bin	0.0002930592	13128
bin	0.0002939136	12976
bin	0.000294768	12768
bin	0.0002956224	12880
bin	0.0002964768	12824
bin	0.0002973312	13224
bin	0.0002981856	12976
bin	0.00029904	12608
bin	0.0002998944	12600
bin	0.0003007488	12200
bin	0.0003016032	12192
bin	0.0003024576	12544
bin	0.000303312	12408
bin	0.0003041664	12720
bin	0.0003050208	13152
bin	0.0003058752	13192
bin	0.0003067296	13024
bin	0.000307584	12968
bin	0.0003084384	12776
bin	0.0003092928	12960
bin	0.0003101472	12616
bin	0.0003110016	12520
bin	0.000311856	12376
bin	0.0003127104	12232
bin	0.0003135648	12144
bin	0.0003144192	11984
bin	0.0003152736	11872
bin	0.000316128	11328
bin	0.0003169824	11496
bin	0.0003178368	11632
bin	0.0003186912	11568
bin	0.0003195456	11632
bin	0.0003204	12232
bin	0.0003212544	11976
bin	0.0003221088	11880
bin	0.0003229632	12320
bin	0.0003238176	12256
bin	0.000324672	12336
bin	0.0003255264	12136
bin	0.0003263808	12168
bin	0.0003272352	12376
bin	0.0003280896	11856
bin	0.000328944	12184
bin	0.0003297984	11784
bin	0.0003306528	11552
bin	0.0003315072	11480
bin	0.0003323616	12048
bin	0.000333216	11680
bin	0.0003340704	12384
bin	0.0003349248	12376
bin	0.0003357792	12792
bin	0.0003366336	12584
bin	0.000337488	12920
bin	0.0003383424	13016
bin	0.0003391968	13592
bin	0.0003400512	13472
bin	0.0003409056	14008
bin	0.00034176	13544
bin	0.0003426144	13280
bin	0.0003434688	12648
bin	0.0003443232	12736
bin	0.0003451776	12464
bin	0.000346032	12344
bin	0.0003468864	11776
bin	0.0003477408	11720
bin	0.0003485952	11328
bin	0.0003494496	11272
bin	0.000350304	10920
bin	0.0003511584	10616
bin	0.0003520128	10384
bin	0.0003528672	9984
bin	0.0003537216	10352
bin	0.000354576	9960
bin	0.0003554304	10016
bin	0.0003562848	10064
bin	0.0003571392	9872
bin	0.0003579936	10072
bin	0.000358848	9960
bin	0.0003597024	9720
bin	0.0003605568	9456
bin	0.0003614112	9664
bin	0.0003622656	9688
bin	0.00036312	9264
bin	0.0003639744	9272
bin	0.0003648288	9080
bin	0.0003656832	9096
bin	0.0003665376	8600
bin	0.000367392	8760
bin	0.0003682464	8696
bin	0.0003691008	8280
bin	0.0003699552	8416
bin	0.0003708096	8616
bin	0.000371664	8832
bin	0.0003725184	8696
bin	0.0003733728	8600
bin	0.0003742272	8576
bin	0.0003750816	8848
bin	0.000375936	8960
bin	0.0003767904	8840
bin	0.0003776448	8624
bin	0.0003784992	8864
bin	0.0003793536	8728
bin	0.000380208	8664
bin	0.0003810624	8584
bin	0.0003819168	8488
bin	0.0003827712	8584
bin	0.0003836256	8840
bin	0.00038448	8496
bin	0.0003853344	8928
bin	0.0003861888	8408
bin	0.0003870432	8336
bin	0.0003878976	8592
bin	0.000388752	8424
bin	0.0003896064	8472
bin	0.0003904608	8576
bin	0.0003913152	8512
bin	0.0003921696	8320
bin	0.000393024	8704
bin	0.0003938784	8456
bin	0.0003947328	8352
bin	0.0003955872	8592
bin	0.0003964416	8560
bin	0.000397296	8344
bin	0.0003981504	8112
bin	0.0003990048	7936
bin	0.0003998592	7960
bin	0.0004007136	7920
bin	0.000401568	7888
bin	0.0004024224	7600
bin	0.0004032768	7352
bin	0.0004041312	7384
bin	0.0004049856	7368
bin	0.00040584	7216
bin	0.0004066944	6960
bin	0.0004075488	6712
bin	0.0004084032	6608
bin	0.0004092576	6624
bin	0.000410112	6696
bin	0.0004109664	6448
bin	0.0004118208	6432
bin	0.0004126752	6400
bin	0.0004135296	6648
bin	0.000414384	6392
bin	0.0004152384	6592
bin	0.0004160928	6600
bin	0.0004169472	6544
bin	0.0004178016	6664
bin	0.000418656	6728
bin	0.0004195104	6456
bin	0.0004203648	6536
bin	0.0004212192	6608
bin	0.0004220736	6640
bin	0.000422928	6264
bin	0.0004237824	6208
bin	0.0004246368	6240
bin	0.0004254912	6008
bin	0.0004263456	5968
bin	0.0004272	434912
