version 2
run Butterfly-13-20120709-10:43:08-22752
attr alg 1
attr buf 8
attr configname Butterfly
attr datetime 20120709-10:43:08
attr delta 0.8
attr experiment Butterfly
attr ext true
attr inifile altro.ini
attr iterationvars "$buf=8, $ext=true, $ofedge=1, $delta=0.8, $alg=1"
attr iterationvars2 "$buf=8, $ext=true, $ofedge=1, $delta=0.8, $alg=1, $repetition=0"
attr measurement "$buf=8, $ext=true, $ofedge=1, $delta=0.8, $alg=1"
attr network Torus3d_bub
attr ofedge 1
attr processid 22752
attr repetition 0
attr replication #0
attr resultdir altro-results
attr runnumber 13
attr seedset 13

scalar . 	alg 	1
scalar . 	buf 	8
scalar . 	delta 	0.8
scalar . 	ofedge 	1
scalar Torus3d_bub.timer 	#endTime 	0.001057760331893
scalar Torus3d_bub.timer 	#totalHops 	33996598
scalar Torus3d_bub.timer 	#totalPacks 	6291456
scalar Torus3d_bub.timer 	#totalDerouted 	4190848
scalar Torus3d_bub.timer 	#totalOutFlanked 	4190848
scalar Torus3d_bub.timer 	#totalCQRed 	0
scalar Torus3d_bub.timer 	#LB 	0.000786432
scalar Torus3d_bub.timer 	#ratio 	0.74348789256691
statistic Torus3d_bub.timer 	"Hop Times"
field count 6291456
field mean 6.33273092603e-06
field stddev 6.5453806707978e-06
field sum 39.842097980957
field sqrsum 0.00052184785227411
field min 4.31055539e-07
field max 0.000186977332661
bin	-INF	0
bin	0	0
bin	7.12e-08	0
bin	1.424e-07	0
bin	2.136e-07	0
bin	2.848e-07	0
bin	3.56e-07	0
bin	4.272e-07	13097
bin	4.984e-07	18562
bin	5.696e-07	18872
bin	6.408e-07	26901
bin	7.12e-07	33036
bin	7.832e-07	23933
bin	8.544e-07	33290
bin	9.256e-07	52607
bin	9.968e-07	34121
bin	1.068e-06	32731
bin	1.1392e-06	57726
bin	1.2104e-06	55645
bin	1.2816e-06	39672
bin	1.3528e-06	45190
bin	1.424e-06	36863
bin	1.4952e-06	59475
bin	1.5664e-06	38539
bin	1.6376e-06	43225
bin	1.7088e-06	53602
bin	1.78e-06	56943
bin	1.8512e-06	51666
bin	1.9224e-06	65740
bin	1.9936e-06	65955
bin	2.0648e-06	62656
bin	2.136e-06	69313
bin	2.2072e-06	65962
bin	2.2784e-06	85574
bin	2.3496e-06	68957
bin	2.4208e-06	80890
bin	2.492e-06	83025
bin	2.5632e-06	78898
bin	2.6344e-06	76882
bin	2.7056e-06	80427
bin	2.7768e-06	87039
bin	2.848e-06	72510
bin	2.9192e-06	77989
bin	2.9904e-06	70028
bin	3.0616e-06	83346
bin	3.1328e-06	69685
bin	3.204e-06	74436
bin	3.2752e-06	78021
bin	3.3464e-06	63310
bin	3.4176e-06	62414
bin	3.4888e-06	67522
bin	3.56e-06	70199
bin	3.6312e-06	57622
bin	3.7024e-06	62210
bin	3.7736e-06	60845
bin	3.8448e-06	66302
bin	3.916e-06	58818
bin	3.9872e-06	56284
bin	4.0584e-06	63226
bin	4.1296e-06	54251
bin	4.2008e-06	51688
bin	4.272e-06	57739
bin	4.3432e-06	58979
bin	4.4144e-06	49048
bin	4.4856e-06	51688
bin	4.5568e-06	47983
bin	4.628e-06	55082
bin	4.6992e-06	46365
bin	4.7704e-06	46452
bin	4.8416e-06	52622
bin	4.9128e-06	44550
bin	4.984e-06	43768
bin	5.0552e-06	46787
bin	5.1264e-06	57671
bin	5.1976e-06	42116
bin	5.2688e-06	46531
bin	5.34e-06	38005
bin	5.4112e-06	50844
bin	5.4824e-06	38854
bin	5.5536e-06	36560
bin	5.6248e-06	48370
bin	5.696e-06	36711
bin	5.7672e-06	36190
bin	5.8384e-06	38705
bin	5.9096e-06	42433
bin	5.9808e-06	30875
bin	6.052e-06	34154
bin	6.1232e-06	29175
bin	6.1944e-06	36523
bin	6.2656e-06	27161
bin	6.3368e-06	26072
bin	6.408e-06	34075
bin	6.4792e-06	24432
bin	6.5504e-06	23481
bin	6.6216e-06	23233
bin	6.6928e-06	30376
bin	6.764e-06	20890
bin	6.8352e-06	21758
bin	6.9064e-06	19235
bin	6.9776e-06	26471
bin	7.0488e-06	17297
bin	7.12e-06	17052
bin	7.1912e-06	23857
bin	7.2624e-06	15843
bin	7.3336e-06	15115
bin	7.4048e-06	15306
bin	7.476e-06	23447
bin	7.5472e-06	15009
bin	7.6184e-06	15881
bin	7.6896e-06	14555
bin	7.7608e-06	23039
bin	7.832e-06	14384
bin	7.9032e-06	15015
bin	7.9744e-06	21632
bin	8.0456e-06	14886
bin	8.1168e-06	13754
bin	8.188e-06	14328
bin	8.2592e-06	17490
bin	8.3304e-06	13092
bin	8.4016e-06	14903
bin	8.4728e-06	12667
bin	8.544e-06	20958
bin	8.6152e-06	12199
bin	8.6864e-06	15472
bin	8.7576e-06	18599
bin	8.8288e-06	14583
bin	8.9e-06	10342
bin	8.9712e-06	13424
bin	9.0424e-06	18455
bin	9.1136e-06	9056
bin	9.1848e-06	12728
bin	9.256e-06	8366
bin	9.3272e-06	19045
bin	9.3984e-06	7709
bin	9.4696e-06	11556
bin	9.5408e-06	10007
bin	9.612e-06	11373
bin	9.6832e-06	7060
bin	9.7544e-06	8807
bin	9.8256e-06	13808
bin	9.8968e-06	6826
bin	9.968e-06	8605
bin	1.00392e-05	6689
bin	1.01104e-05	15407
bin	1.01816e-05	6831
bin	1.02528e-05	8492
bin	1.0324e-05	11321
bin	1.03952e-05	8839
bin	1.04664e-05	6171
bin	1.05376e-05	8435
bin	1.06088e-05	10429
bin	1.068e-05	6381
bin	1.07512e-05	8036
bin	1.08224e-05	6399
bin	1.08936e-05	12017
bin	1.09648e-05	6696
bin	1.1036e-05	7829
bin	1.11072e-05	13139
bin	1.11784e-05	8357
bin	1.12496e-05	5934
bin	1.13208e-05	8329
bin	1.1392e-05	12752
bin	1.14632e-05	6843
bin	1.15344e-05	7434
bin	1.16056e-05	6866
bin	1.16768e-05	14337
bin	1.1748e-05	6968
bin	1.18192e-05	7508
bin	1.18904e-05	11829
bin	1.19616e-05	10843
bin	1.20328e-05	7968
bin	1.2104e-05	8306
bin	1.21752e-05	16280
bin	1.22464e-05	7187
bin	1.23176e-05	8710
bin	1.23888e-05	6974
bin	1.246e-05	10674
bin	1.25312e-05	9190
bin	1.26024e-05	6838
bin	1.26736e-05	14506
bin	1.27448e-05	10087
bin	1.2816e-05	5572
bin	1.28872e-05	9408
bin	1.29584e-05	9699
bin	1.30296e-05	6794
bin	1.31008e-05	5903
bin	1.3172e-05	6692
bin	1.32432e-05	7197
bin	1.33144e-05	6550
bin	1.33856e-05	6412
bin	1.34568e-05	6949
bin	1.3528e-05	6961
bin	1.35992e-05	5546
bin	1.36704e-05	6365
bin	1.37416e-05	6933
bin	1.38128e-05	6232
bin	1.3884e-05	5552
bin	1.39552e-05	6249
bin	1.40264e-05	6555
bin	1.40976e-05	5948
bin	1.41688e-05	6153
bin	1.424e-05	6300
bin	1.43112e-05	6216
bin	1.43824e-05	5449
bin	1.44536e-05	5563
bin	1.45248e-05	6453
bin	1.4596e-05	5558
bin	1.46672e-05	5112
bin	1.47384e-05	5480
bin	1.48096e-05	5693
bin	1.48808e-05	5097
bin	1.4952e-05	5054
bin	1.50232e-05	5553
bin	1.50944e-05	5004
bin	1.51656e-05	4803
bin	1.52368e-05	4610
bin	1.5308e-05	5335
bin	1.53792e-05	4548
bin	1.54504e-05	4411
bin	1.55216e-05	4464
bin	1.55928e-05	4509
bin	1.5664e-05	4251
bin	1.57352e-05	3919
bin	1.58064e-05	4430
bin	1.58776e-05	3976
bin	1.59488e-05	3753
bin	1.602e-05	3627
bin	1.60912e-05	4065
bin	1.61624e-05	3610
bin	1.62336e-05	3277
bin	1.63048e-05	3556
bin	1.6376e-05	3465
bin	1.64472e-05	3301
bin	1.65184e-05	3128
bin	1.65896e-05	3623
bin	1.66608e-05	3026
bin	1.6732e-05	3137
bin	1.68032e-05	2978
bin	1.68744e-05	3333
bin	1.69456e-05	3205
bin	1.70168e-05	2952
bin	1.7088e-05	3151
bin	1.71592e-05	3199
bin	1.72304e-05	2964
bin	1.73016e-05	2717
bin	1.73728e-05	3185
bin	1.7444e-05	2858
bin	1.75152e-05	2896
bin	1.75864e-05	2942
bin	1.76576e-05	3134
bin	1.77288e-05	3164
bin	1.78e-05	2801
bin	1.78712e-05	2973
bin	1.79424e-05	3007
bin	1.80136e-05	2996
bin	1.80848e-05	2803
bin	1.8156e-05	2973
bin	1.82272e-05	2793
bin	1.82984e-05	2773
bin	1.83696e-05	2738
bin	1.84408e-05	2944
bin	1.8512e-05	2830
bin	1.85832e-05	2635
bin	1.86544e-05	2704
bin	1.87256e-05	2807
bin	1.87968e-05	2718
bin	1.8868e-05	2683
bin	1.89392e-05	2771
bin	1.90104e-05	2585
bin	1.90816e-05	2649
bin	1.91528e-05	2514
bin	1.9224e-05	2648
bin	1.92952e-05	2721
bin	1.93664e-05	2469
bin	1.94376e-05	2484
bin	1.95088e-05	2411
bin	1.958e-05	2551
bin	1.96512e-05	2205
bin	1.97224e-05	2366
bin	1.97936e-05	2166
bin	1.98648e-05	2369
bin	1.9936e-05	2125
bin	2.00072e-05	2306
bin	2.00784e-05	2251
bin	2.01496e-05	2140
bin	2.02208e-05	2057
bin	2.0292e-05	1997
bin	2.03632e-05	2092
bin	2.04344e-05	1914
bin	2.05056e-05	1995
bin	2.05768e-05	1924
bin	2.0648e-05	1981
bin	2.07192e-05	1737
bin	2.07904e-05	1867
bin	2.08616e-05	1843
bin	2.09328e-05	1855
bin	2.1004e-05	1706
bin	2.10752e-05	1614
bin	2.11464e-05	1805
bin	2.12176e-05	1614
bin	2.12888e-05	1673
bin	2.136e-05	1663
bin	2.14312e-05	1852
bin	2.15024e-05	1635
bin	2.15736e-05	1718
bin	2.16448e-05	1808
bin	2.1716e-05	1884
bin	2.17872e-05	1764
bin	2.18584e-05	1697
bin	2.19296e-05	1848
bin	2.20008e-05	1734
bin	2.2072e-05	1760
bin	2.21432e-05	1750
bin	2.22144e-05	1841
bin	2.22856e-05	1720
bin	2.23568e-05	1788
bin	2.2428e-05	1844
bin	2.24992e-05	2046
bin	2.25704e-05	1784
bin	2.26416e-05	1729
bin	2.27128e-05	1830
bin	2.2784e-05	1742
bin	2.28552e-05	1736
bin	2.29264e-05	1678
bin	2.29976e-05	1729
bin	2.30688e-05	1536
bin	2.314e-05	1541
bin	2.32112e-05	1579
bin	2.32824e-05	1763
bin	2.33536e-05	1510
bin	2.34248e-05	1409
bin	2.3496e-05	1456
bin	2.35672e-05	1336
bin	2.36384e-05	1376
bin	2.37096e-05	1336
bin	2.37808e-05	1346
bin	2.3852e-05	1199
bin	2.39232e-05	1237
bin	2.39944e-05	1223
bin	2.40656e-05	1267
bin	2.41368e-05	1219
bin	2.4208e-05	1155
bin	2.42792e-05	1224
bin	2.43504e-05	1147
bin	2.44216e-05	1170
bin	2.44928e-05	1148
bin	2.4564e-05	1212
bin	2.46352e-05	1081
bin	2.47064e-05	1132
bin	2.47776e-05	1117
bin	2.48488e-05	1137
bin	2.492e-05	1149
bin	2.49912e-05	1083
bin	2.50624e-05	1157
bin	2.51336e-05	1127
bin	2.52048e-05	1178
bin	2.5276e-05	1032
bin	2.53472e-05	1200
bin	2.54184e-05	1064
bin	2.54896e-05	1098
bin	2.55608e-05	1141
bin	2.5632e-05	1161
bin	2.57032e-05	1191
bin	2.57744e-05	1146
bin	2.58456e-05	1186
bin	2.59168e-05	1097
bin	2.5988e-05	1148
bin	2.60592e-05	1093
bin	2.61304e-05	1173
bin	2.62016e-05	1122
bin	2.62728e-05	1200
bin	2.6344e-05	1133
bin	2.64152e-05	1200
bin	2.64864e-05	1247
bin	2.65576e-05	1223
bin	2.66288e-05	1288
bin	2.67e-05	1323
bin	2.67712e-05	1299
bin	2.68424e-05	1306
bin	2.69136e-05	1337
bin	2.69848e-05	1314
bin	2.7056e-05	1352
bin	2.71272e-05	1334
bin	2.71984e-05	1340
bin	2.72696e-05	1358
bin	2.73408e-05	1358
bin	2.7412e-05	1334
bin	2.74832e-05	1371
bin	2.75544e-05	1370
bin	2.76256e-05	1356
bin	2.76968e-05	1412
bin	2.7768e-05	1319
bin	2.78392e-05	1399
bin	2.79104e-05	1368
bin	2.79816e-05	1327
bin	2.80528e-05	1380
bin	2.8124e-05	1290
bin	2.81952e-05	1370
bin	2.82664e-05	1316
bin	2.83376e-05	1321
bin	2.84088e-05	1314
bin	2.848e-05	1307
bin	2.85512e-05	1230
bin	2.86224e-05	1232
bin	2.86936e-05	1229
bin	2.87648e-05	1197
bin	2.8836e-05	1194
bin	2.89072e-05	1188
bin	2.89784e-05	1146
bin	2.90496e-05	1115
bin	2.91208e-05	1132
bin	2.9192e-05	1024
bin	2.92632e-05	1003
bin	2.93344e-05	959
bin	2.94056e-05	1010
bin	2.94768e-05	921
bin	2.9548e-05	924
bin	2.96192e-05	926
bin	2.96904e-05	930
bin	2.97616e-05	850
bin	2.98328e-05	849
bin	2.9904e-05	825
bin	2.99752e-05	786
bin	3.00464e-05	770
bin	3.01176e-05	730
bin	3.01888e-05	774
bin	3.026e-05	664
bin	3.03312e-05	697
bin	3.04024e-05	727
bin	3.04736e-05	608
bin	3.05448e-05	669
bin	3.0616e-05	627
bin	3.06872e-05	635
bin	3.07584e-05	579
bin	3.08296e-05	602
bin	3.09008e-05	563
bin	3.0972e-05	592
bin	3.10432e-05	542
bin	3.11144e-05	515
bin	3.11856e-05	586
bin	3.12568e-05	447
bin	3.1328e-05	514
bin	3.13992e-05	481
bin	3.14704e-05	537
bin	3.15416e-05	435
bin	3.16128e-05	494
bin	3.1684e-05	484
bin	3.17552e-05	465
bin	3.18264e-05	399
bin	3.18976e-05	424
bin	3.19688e-05	443
bin	3.204e-05	364
bin	3.21112e-05	360
bin	3.21824e-05	355
bin	3.22536e-05	377
bin	3.23248e-05	326
bin	3.2396e-05	322
bin	3.24672e-05	327
bin	3.25384e-05	322
bin	3.26096e-05	296
bin	3.26808e-05	283
bin	3.2752e-05	318
bin	3.28232e-05	291
bin	3.28944e-05	287
bin	3.29656e-05	254
bin	3.30368e-05	315
bin	3.3108e-05	259
bin	3.31792e-05	270
bin	3.32504e-05	255
bin	3.33216e-05	269
bin	3.33928e-05	232
bin	3.3464e-05	251
bin	3.35352e-05	264
bin	3.36064e-05	241
bin	3.36776e-05	262
bin	3.37488e-05	209
bin	3.382e-05	273
bin	3.38912e-05	212
bin	3.39624e-05	235
bin	3.40336e-05	236
bin	3.41048e-05	226
bin	3.4176e-05	202
bin	3.42472e-05	223
bin	3.43184e-05	254
bin	3.43896e-05	203
bin	3.44608e-05	225
bin	3.4532e-05	200
bin	3.46032e-05	238
bin	3.46744e-05	194
bin	3.47456e-05	226
bin	3.48168e-05	219
bin	3.4888e-05	207
bin	3.49592e-05	195
bin	3.50304e-05	188
bin	3.51016e-05	217
bin	3.51728e-05	177
bin	3.5244e-05	213
bin	3.53152e-05	174
bin	3.53864e-05	207
bin	3.54576e-05	169
bin	3.55288e-05	196
bin	3.56e-05	37685
statistic Torus3d_bub.timer 	"Life Times"
field count 6291456
field mean 2.9186580873958e-05
field stddev 2.5731594712988e-05
field sum 183.62608935895
field sqrsum 0.009525084224038
field min 7.33331989e-07
field max 0.000277548999659
bin	-INF	0
bin	0	13218
bin	8.544e-07	78471
bin	1.7088e-06	141401
bin	2.5632e-06	124057
bin	3.4176e-06	117134
bin	4.272e-06	111765
bin	5.1264e-06	139564
bin	5.9808e-06	131864
bin	6.8352e-06	138189
bin	7.6896e-06	143786
bin	8.544e-06	162005
bin	9.3984e-06	147438
bin	1.02528e-05	136302
bin	1.11072e-05	157348
bin	1.19616e-05	135026
bin	1.2816e-05	130090
bin	1.36704e-05	130605
bin	1.45248e-05	136579
bin	1.53792e-05	140494
bin	1.62336e-05	129193
bin	1.7088e-05	129934
bin	1.79424e-05	138030
bin	1.87968e-05	126486
bin	1.96512e-05	119734
bin	2.05056e-05	130143
bin	2.136e-05	117571
bin	2.22144e-05	115825
bin	2.30688e-05	115559
bin	2.39232e-05	117550
bin	2.47776e-05	108339
bin	2.5632e-05	96855
bin	2.64864e-05	91774
bin	2.73408e-05	89091
bin	2.81952e-05	84630
bin	2.90496e-05	80433
bin	2.9904e-05	78617
bin	3.07584e-05	76479
bin	3.16128e-05	64190
bin	3.24672e-05	58659
bin	3.33216e-05	56967
bin	3.4176e-05	54036
bin	3.50304e-05	48250
bin	3.58848e-05	44167
bin	3.67392e-05	39839
bin	3.75936e-05	35751
bin	3.8448e-05	33337
bin	3.93024e-05	30842
bin	4.01568e-05	29363
bin	4.10112e-05	27553
bin	4.18656e-05	27295
bin	4.272e-05	26524
bin	4.35744e-05	27649
bin	4.44288e-05	27501
bin	4.52832e-05	27054
bin	4.61376e-05	27645
bin	4.6992e-05	28293
bin	4.78464e-05	27777
bin	4.87008e-05	27208
bin	4.95552e-05	27155
bin	5.04096e-05	26841
bin	5.1264e-05	27359
bin	5.21184e-05	26874
bin	5.29728e-05	27066
bin	5.38272e-05	26111
bin	5.46816e-05	25514
bin	5.5536e-05	25212
bin	5.63904e-05	25456
bin	5.72448e-05	24877
bin	5.80992e-05	24308
bin	5.89536e-05	24343
bin	5.9808e-05	23377
bin	6.06624e-05	22928
bin	6.15168e-05	22385
bin	6.23712e-05	21685
bin	6.32256e-05	20252
bin	6.408e-05	19887
bin	6.49344e-05	19160
bin	6.57888e-05	18735
bin	6.66432e-05	18146
bin	6.74976e-05	18009
bin	6.8352e-05	17488
bin	6.92064e-05	16634
bin	7.00608e-05	15724
bin	7.09152e-05	15934
bin	7.17696e-05	15329
bin	7.2624e-05	14198
bin	7.34784e-05	14352
bin	7.43328e-05	14753
bin	7.51872e-05	15765
bin	7.60416e-05	15815
bin	7.6896e-05	16389
bin	7.77504e-05	16511
bin	7.86048e-05	16429
bin	7.94592e-05	16632
bin	8.03136e-05	17069
bin	8.1168e-05	17377
bin	8.20224e-05	16868
bin	8.28768e-05	16922
bin	8.37312e-05	16761
bin	8.45856e-05	17130
bin	8.544e-05	16461
bin	8.62944e-05	15912
bin	8.71488e-05	15544
bin	8.80032e-05	14808
bin	8.88576e-05	14102
bin	8.9712e-05	13767
bin	9.05664e-05	12827
bin	9.14208e-05	11613
bin	9.22752e-05	10634
bin	9.31296e-05	9803
bin	9.3984e-05	8632
bin	9.48384e-05	7863
bin	9.56928e-05	7365
bin	9.65472e-05	6479
bin	9.74016e-05	6136
bin	9.8256e-05	5600
bin	9.91104e-05	5427
bin	9.99648e-05	5268
bin	0.0001008192	5133
bin	0.0001016736	5157
bin	0.000102528	5215
bin	0.0001033824	4724
bin	0.0001042368	4829
bin	0.0001050912	5138
bin	0.0001059456	5446
bin	0.0001068	5716
bin	0.0001076544	5695
bin	0.0001085088	5627
bin	0.0001093632	5676
bin	0.0001102176	5756
bin	0.000111072	5432
bin	0.0001119264	5498
bin	0.0001127808	5348
bin	0.0001136352	5026
bin	0.0001144896	4778
bin	0.000115344	4602
bin	0.0001161984	4189
bin	0.0001170528	3687
bin	0.0001179072	3347
bin	0.0001187616	3099
bin	0.000119616	2773
bin	0.0001204704	2337
bin	0.0001213248	2017
bin	0.0001221792	1749
bin	0.0001230336	1525
bin	0.000123888	1183
bin	0.0001247424	981
bin	0.0001255968	796
bin	0.0001264512	610
bin	0.0001273056	502
bin	0.00012816	423
bin	0.0001290144	362
bin	0.0001298688	305
bin	0.0001307232	268
bin	0.0001315776	245
bin	0.000132432	209
bin	0.0001332864	211
bin	0.0001341408	140
bin	0.0001349952	166
bin	0.0001358496	161
bin	0.000136704	123
bin	0.0001375584	122
bin	0.0001384128	160
bin	0.0001392672	133
bin	0.0001401216	157
bin	0.000140976	132
bin	0.0001418304	166
bin	0.0001426848	143
bin	0.0001435392	155
bin	0.0001443936	149
bin	0.000145248	145
bin	0.0001461024	141
bin	0.0001469568	140
bin	0.0001478112	139
bin	0.0001486656	123
bin	0.00014952	123
bin	0.0001503744	135
bin	0.0001512288	130
bin	0.0001520832	135
bin	0.0001529376	125
bin	0.000153792	108
bin	0.0001546464	96
bin	0.0001555008	80
bin	0.0001563552	94
bin	0.0001572096	92
bin	0.000158064	69
bin	0.0001589184	69
bin	0.0001597728	47
bin	0.0001606272	55
bin	0.0001614816	47
bin	0.000162336	49
bin	0.0001631904	46
bin	0.0001640448	42
bin	0.0001648992	36
bin	0.0001657536	45
bin	0.000166608	34
bin	0.0001674624	47
bin	0.0001683168	42
bin	0.0001691712	40
bin	0.0001700256	41
bin	0.00017088	37
bin	0.0001717344	62
bin	0.0001725888	43
bin	0.0001734432	45
bin	0.0001742976	36
bin	0.000175152	37
bin	0.0001760064	37
bin	0.0001768608	45
bin	0.0001777152	27
bin	0.0001785696	30
bin	0.000179424	26
bin	0.0001802784	40
bin	0.0001811328	27
bin	0.0001819872	27
bin	0.0001828416	26
bin	0.000183696	24
bin	0.0001845504	39
bin	0.0001854048	39
bin	0.0001862592	28
bin	0.0001871136	38
bin	0.000187968	38
bin	0.0001888224	34
bin	0.0001896768	32
bin	0.0001905312	31
bin	0.0001913856	41
bin	0.00019224	25
bin	0.0001930944	22
bin	0.0001939488	27
bin	0.0001948032	21
bin	0.0001956576	24
bin	0.000196512	33
bin	0.0001973664	18
bin	0.0001982208	31
bin	0.0001990752	29
bin	0.0001999296	28
bin	0.000200784	25
bin	0.0002016384	19
bin	0.0002024928	26
bin	0.0002033472	24
bin	0.0002042016	25
bin	0.000205056	32
bin	0.0002059104	31
bin	0.0002067648	28
bin	0.0002076192	32
bin	0.0002084736	13
bin	0.000209328	17
bin	0.0002101824	17
bin	0.0002110368	29
bin	0.0002118912	29
bin	0.0002127456	15
bin	0.0002136	27
bin	0.0002144544	21
bin	0.0002153088	18
bin	0.0002161632	12
bin	0.0002170176	7
bin	0.000217872	3
bin	0.0002187264	5
bin	0.0002195808	12
bin	0.0002204352	14
bin	0.0002212896	9
bin	0.000222144	12
bin	0.0002229984	13
bin	0.0002238528	14
bin	0.0002247072	16
bin	0.0002255616	22
bin	0.000226416	12
bin	0.0002272704	14
bin	0.0002281248	15
bin	0.0002289792	8
bin	0.0002298336	12
bin	0.000230688	8
bin	0.0002315424	14
bin	0.0002323968	8
bin	0.0002332512	8
bin	0.0002341056	16
bin	0.00023496	8
bin	0.0002358144	10
bin	0.0002366688	5
bin	0.0002375232	4
bin	0.0002383776	14
bin	0.000239232	16
bin	0.0002400864	15
bin	0.0002409408	3
bin	0.0002417952	9
bin	0.0002426496	3
bin	0.000243504	4
bin	0.0002443584	5
bin	0.0002452128	6
bin	0.0002460672	6
bin	0.0002469216	1
bin	0.000247776	0
bin	0.0002486304	0
bin	0.0002494848	0
bin	0.0002503392	0
bin	0.0002511936	0
bin	0.000252048	1
bin	0.0002529024	0
bin	0.0002537568	0
bin	0.0002546112	0
bin	0.0002554656	0
bin	0.00025632	0
bin	0.0002571744	0
bin	0.0002580288	0
bin	0.0002588832	0
bin	0.0002597376	0
bin	0.000260592	0
bin	0.0002614464	0
bin	0.0002623008	0
bin	0.0002631552	0
bin	0.0002640096	0
bin	0.000264864	0
bin	0.0002657184	0
bin	0.0002665728	0
bin	0.0002674272	0
bin	0.0002682816	0
bin	0.000269136	0
bin	0.0002699904	0
bin	0.0002708448	0
bin	0.0002716992	0
bin	0.0002725536	0
bin	0.000273408	0
bin	0.0002742624	0
bin	0.0002751168	0
bin	0.0002759712	0
bin	0.0002768256	1
bin	0.00027768	0
bin	0.0002785344	0
bin	0.0002793888	0
bin	0.0002802432	0
bin	0.0002810976	0
bin	0.000281952	0
bin	0.0002828064	0
bin	0.0002836608	0
bin	0.0002845152	0
bin	0.0002853696	0
bin	0.000286224	0
bin	0.0002870784	0
bin	0.0002879328	0
bin	0.0002887872	0
bin	0.0002896416	0
bin	0.000290496	0
bin	0.0002913504	0
bin	0.0002922048	0
bin	0.0002930592	0
bin	0.0002939136	0
bin	0.000294768	0
bin	0.0002956224	0
bin	0.0002964768	0
bin	0.0002973312	0
bin	0.0002981856	0
bin	0.00029904	0
bin	0.0002998944	0
bin	0.0003007488	0
bin	0.0003016032	0
bin	0.0003024576	0
bin	0.000303312	0
bin	0.0003041664	0
bin	0.0003050208	0
bin	0.0003058752	0
bin	0.0003067296	0
bin	0.000307584	0
bin	0.0003084384	0
bin	0.0003092928	0
bin	0.0003101472	0
bin	0.0003110016	0
bin	0.000311856	0
bin	0.0003127104	0
bin	0.0003135648	0
bin	0.0003144192	0
bin	0.0003152736	0
bin	0.000316128	0
bin	0.0003169824	0
bin	0.0003178368	0
bin	0.0003186912	0
bin	0.0003195456	0
bin	0.0003204	0
bin	0.0003212544	0
bin	0.0003221088	0
bin	0.0003229632	0
bin	0.0003238176	0
bin	0.000324672	0
bin	0.0003255264	0
bin	0.0003263808	0
bin	0.0003272352	0
bin	0.0003280896	0
bin	0.000328944	0
bin	0.0003297984	0
bin	0.0003306528	0
bin	0.0003315072	0
bin	0.0003323616	0
bin	0.000333216	0
bin	0.0003340704	0
bin	0.0003349248	0
bin	0.0003357792	0
bin	0.0003366336	0
bin	0.000337488	0
bin	0.0003383424	0
bin	0.0003391968	0
bin	0.0003400512	0
bin	0.0003409056	0
bin	0.00034176	0
bin	0.0003426144	0
bin	0.0003434688	0
bin	0.0003443232	0
bin	0.0003451776	0
bin	0.000346032	0
bin	0.0003468864	0
bin	0.0003477408	0
bin	0.0003485952	0
bin	0.0003494496	0
bin	0.000350304	0
bin	0.0003511584	0
bin	0.0003520128	0
bin	0.0003528672	0
bin	0.0003537216	0
bin	0.000354576	0
bin	0.0003554304	0
bin	0.0003562848	0
bin	0.0003571392	0
bin	0.0003579936	0
bin	0.000358848	0
bin	0.0003597024	0
bin	0.0003605568	0
bin	0.0003614112	0
bin	0.0003622656	0
bin	0.00036312	0
bin	0.0003639744	0
bin	0.0003648288	0
bin	0.0003656832	0
bin	0.0003665376	0
bin	0.000367392	0
bin	0.0003682464	0
bin	0.0003691008	0
bin	0.0003699552	0
bin	0.0003708096	0
bin	0.000371664	0
bin	0.0003725184	0
bin	0.0003733728	0
bin	0.0003742272	0
bin	0.0003750816	0
bin	0.000375936	0
bin	0.0003767904	0
bin	0.0003776448	0
bin	0.0003784992	0
bin	0.0003793536	0
bin	0.000380208	0
bin	0.0003810624	0
bin	0.0003819168	0
bin	0.0003827712	0
bin	0.0003836256	0
bin	0.00038448	0
bin	0.0003853344	0
bin	0.0003861888	0
bin	0.0003870432	0
bin	0.0003878976	0
bin	0.000388752	0
bin	0.0003896064	0
bin	0.0003904608	0
bin	0.0003913152	0
bin	0.0003921696	0
bin	0.000393024	0
bin	0.0003938784	0
bin	0.0003947328	0
bin	0.0003955872	0
bin	0.0003964416	0
bin	0.000397296	0
bin	0.0003981504	0
bin	0.0003990048	0
bin	0.0003998592	0
bin	0.0004007136	0
bin	0.000401568	0
bin	0.0004024224	0
bin	0.0004032768	0
bin	0.0004041312	0
bin	0.0004049856	0
bin	0.00040584	0
bin	0.0004066944	0
bin	0.0004075488	0
bin	0.0004084032	0
bin	0.0004092576	0
bin	0.000410112	0
bin	0.0004109664	0
bin	0.0004118208	0
bin	0.0004126752	0
bin	0.0004135296	0
bin	0.000414384	0
bin	0.0004152384	0
bin	0.0004160928	0
bin	0.0004169472	0
bin	0.0004178016	0
bin	0.000418656	0
bin	0.0004195104	0
bin	0.0004203648	0
bin	0.0004212192	0
bin	0.0004220736	0
bin	0.000422928	0
bin	0.0004237824	0
bin	0.0004246368	0
bin	0.0004254912	0
bin	0.0004263456	0
bin	0.0004272	0
