version 2
run Butterfly-157-20120709-14:37:56-24208
attr alg 1
attr buf 8
attr configname Butterfly
attr datetime 20120709-14:37:56
attr delta 0.8
attr experiment Butterfly
attr ext false
attr inifile altro.ini
attr iterationvars "$buf=8, $ext=false, $ofedge=2, $delta=0.8, $alg=1"
attr iterationvars2 "$buf=8, $ext=false, $ofedge=2, $delta=0.8, $alg=1, $repetition=0"
attr measurement "$buf=8, $ext=false, $ofedge=2, $delta=0.8, $alg=1"
attr network Torus3d_bub
attr ofedge 2
attr processid 24208
attr repetition 0
attr replication #0
attr resultdir altro-results
attr runnumber 157
attr seedset 157

scalar . 	alg 	1
scalar . 	buf 	8
scalar . 	delta 	0.8
scalar . 	ofedge 	2
scalar Torus3d_bub.timer 	#endTime 	0.001109594998289
scalar Torus3d_bub.timer 	#totalHops 	46906388
scalar Torus3d_bub.timer 	#totalPacks 	6291456
scalar Torus3d_bub.timer 	#totalDerouted 	4396364
scalar Torus3d_bub.timer 	#totalOutFlanked 	4396364
scalar Torus3d_bub.timer 	#totalCQRed 	0
scalar Torus3d_bub.timer 	#LB 	0.000786432
scalar Torus3d_bub.timer 	#ratio 	0.70875589851494
statistic Torus3d_bub.timer 	"Hop Times"
field count 6291456
field mean 6.632038442834e-06
field stddev 8.7626277312491e-06
field sum 41.725178053399
field sqrsum 0.00075980383060546
field min 4.10166492e-07
field max 0.000307145332181
bin	-INF	0
bin	0	0
bin	7.12e-08	0
bin	1.424e-07	0
bin	2.136e-07	0
bin	2.848e-07	0
bin	3.56e-07	3
bin	4.272e-07	6331
bin	4.984e-07	14224
bin	5.696e-07	11481
bin	6.408e-07	21001
bin	7.12e-07	29859
bin	7.832e-07	22709
bin	8.544e-07	27566
bin	9.256e-07	34856
bin	9.968e-07	33821
bin	1.068e-06	30138
bin	1.1392e-06	42607
bin	1.2104e-06	42581
bin	1.2816e-06	40131
bin	1.3528e-06	48932
bin	1.424e-06	45668
bin	1.4952e-06	60176
bin	1.5664e-06	52181
bin	1.6376e-06	67175
bin	1.7088e-06	68605
bin	1.78e-06	76609
bin	1.8512e-06	73160
bin	1.9224e-06	81465
bin	1.9936e-06	87944
bin	2.0648e-06	89076
bin	2.136e-06	84670
bin	2.2072e-06	78688
bin	2.2784e-06	94278
bin	2.3496e-06	79368
bin	2.4208e-06	86692
bin	2.492e-06	89860
bin	2.5632e-06	92203
bin	2.6344e-06	83840
bin	2.7056e-06	84177
bin	2.7768e-06	84126
bin	2.848e-06	83999
bin	2.9192e-06	79958
bin	2.9904e-06	75922
bin	3.0616e-06	82985
bin	3.1328e-06	69997
bin	3.204e-06	68375
bin	3.2752e-06	71739
bin	3.3464e-06	67245
bin	3.4176e-06	63982
bin	3.4888e-06	59026
bin	3.56e-06	61123
bin	3.6312e-06	62127
bin	3.7024e-06	55015
bin	3.7736e-06	54012
bin	3.8448e-06	65687
bin	3.916e-06	49750
bin	3.9872e-06	49560
bin	4.0584e-06	50640
bin	4.1296e-06	50973
bin	4.2008e-06	47937
bin	4.272e-06	45036
bin	4.3432e-06	46957
bin	4.4144e-06	46554
bin	4.4856e-06	42155
bin	4.5568e-06	41491
bin	4.628e-06	47915
bin	4.6992e-06	39211
bin	4.7704e-06	40660
bin	4.8416e-06	40822
bin	4.9128e-06	41656
bin	4.984e-06	36517
bin	5.0552e-06	36914
bin	5.1264e-06	38713
bin	5.1976e-06	39150
bin	5.2688e-06	34441
bin	5.34e-06	32800
bin	5.4112e-06	39481
bin	5.4824e-06	31501
bin	5.5536e-06	31003
bin	5.6248e-06	32655
bin	5.696e-06	34210
bin	5.7672e-06	28741
bin	5.8384e-06	28743
bin	5.9096e-06	32598
bin	5.9808e-06	31365
bin	6.052e-06	27248
bin	6.1232e-06	26500
bin	6.1944e-06	33064
bin	6.2656e-06	26109
bin	6.3368e-06	26248
bin	6.408e-06	27773
bin	6.4792e-06	30253
bin	6.5504e-06	25175
bin	6.6216e-06	26045
bin	6.6928e-06	27541
bin	6.764e-06	28641
bin	6.8352e-06	26255
bin	6.9064e-06	24603
bin	6.9776e-06	30640
bin	7.0488e-06	23531
bin	7.12e-06	23363
bin	7.1912e-06	24869
bin	7.2624e-06	27060
bin	7.3336e-06	22250
bin	7.4048e-06	21736
bin	7.476e-06	23584
bin	7.5472e-06	25010
bin	7.6184e-06	21071
bin	7.6896e-06	19879
bin	7.7608e-06	25536
bin	7.832e-06	18138
bin	7.9032e-06	17599
bin	7.9744e-06	18177
bin	8.0456e-06	18243
bin	8.1168e-06	15129
bin	8.188e-06	15017
bin	8.2592e-06	15969
bin	8.3304e-06	18042
bin	8.4016e-06	14319
bin	8.4728e-06	12928
bin	8.544e-06	18749
bin	8.6152e-06	12274
bin	8.6864e-06	12482
bin	8.7576e-06	13134
bin	8.8288e-06	16027
bin	8.9e-06	11367
bin	8.9712e-06	11467
bin	9.0424e-06	12929
bin	9.1136e-06	12989
bin	9.1848e-06	13313
bin	9.256e-06	10884
bin	9.3272e-06	16893
bin	9.3984e-06	10668
bin	9.4696e-06	11123
bin	9.5408e-06	11753
bin	9.612e-06	15392
bin	9.6832e-06	10526
bin	9.7544e-06	12983
bin	9.8256e-06	14276
bin	9.8968e-06	10575
bin	9.968e-06	10921
bin	1.00392e-05	10412
bin	1.01104e-05	18562
bin	1.01816e-05	10613
bin	1.02528e-05	12856
bin	1.0324e-05	11717
bin	1.03952e-05	15167
bin	1.04664e-05	9952
bin	1.05376e-05	12636
bin	1.06088e-05	11349
bin	1.068e-05	11621
bin	1.07512e-05	9773
bin	1.08224e-05	9040
bin	1.08936e-05	12732
bin	1.09648e-05	8942
bin	1.1036e-05	9090
bin	1.11072e-05	9733
bin	1.11784e-05	13222
bin	1.12496e-05	8233
bin	1.13208e-05	8814
bin	1.1392e-05	9522
bin	1.14632e-05	14243
bin	1.15344e-05	8177
bin	1.16056e-05	7796
bin	1.16768e-05	13427
bin	1.1748e-05	7654
bin	1.18192e-05	9741
bin	1.18904e-05	8666
bin	1.19616e-05	11907
bin	1.20328e-05	6940
bin	1.2104e-05	11598
bin	1.21752e-05	8028
bin	1.22464e-05	10908
bin	1.23176e-05	6940
bin	1.23888e-05	8617
bin	1.246e-05	9269
bin	1.25312e-05	8319
bin	1.26024e-05	6321
bin	1.26736e-05	8471
bin	1.27448e-05	8164
bin	1.2816e-05	5503
bin	1.28872e-05	5958
bin	1.29584e-05	5976
bin	1.30296e-05	5404
bin	1.31008e-05	5510
bin	1.3172e-05	5187
bin	1.32432e-05	5715
bin	1.33144e-05	5090
bin	1.33856e-05	5316
bin	1.34568e-05	5384
bin	1.3528e-05	5365
bin	1.35992e-05	4915
bin	1.36704e-05	5229
bin	1.37416e-05	5276
bin	1.38128e-05	4898
bin	1.3884e-05	4898
bin	1.39552e-05	4905
bin	1.40264e-05	5173
bin	1.40976e-05	4667
bin	1.41688e-05	4873
bin	1.424e-05	4797
bin	1.43112e-05	4776
bin	1.43824e-05	4427
bin	1.44536e-05	4671
bin	1.45248e-05	4639
bin	1.4596e-05	4501
bin	1.46672e-05	4462
bin	1.47384e-05	4282
bin	1.48096e-05	4672
bin	1.48808e-05	4293
bin	1.4952e-05	4359
bin	1.50232e-05	4365
bin	1.50944e-05	4304
bin	1.51656e-05	4046
bin	1.52368e-05	4171
bin	1.5308e-05	4213
bin	1.53792e-05	4060
bin	1.54504e-05	4033
bin	1.55216e-05	3797
bin	1.55928e-05	3914
bin	1.5664e-05	3539
bin	1.57352e-05	3596
bin	1.58064e-05	3471
bin	1.58776e-05	3396
bin	1.59488e-05	3171
bin	1.602e-05	3060
bin	1.60912e-05	3301
bin	1.61624e-05	3023
bin	1.62336e-05	2815
bin	1.63048e-05	2756
bin	1.6376e-05	3008
bin	1.64472e-05	2700
bin	1.65184e-05	2733
bin	1.65896e-05	2711
bin	1.66608e-05	2511
bin	1.6732e-05	2546
bin	1.68032e-05	2371
bin	1.68744e-05	2563
bin	1.69456e-05	2507
bin	1.70168e-05	2330
bin	1.7088e-05	2302
bin	1.71592e-05	2590
bin	1.72304e-05	2220
bin	1.73016e-05	2251
bin	1.73728e-05	2395
bin	1.7444e-05	2291
bin	1.75152e-05	2190
bin	1.75864e-05	2149
bin	1.76576e-05	2319
bin	1.77288e-05	2256
bin	1.78e-05	2162
bin	1.78712e-05	2100
bin	1.79424e-05	2521
bin	1.80136e-05	2189
bin	1.80848e-05	2061
bin	1.8156e-05	2154
bin	1.82272e-05	2025
bin	1.82984e-05	2075
bin	1.83696e-05	1978
bin	1.84408e-05	2168
bin	1.8512e-05	2126
bin	1.85832e-05	2070
bin	1.86544e-05	2003
bin	1.87256e-05	2239
bin	1.87968e-05	1917
bin	1.8868e-05	2020
bin	1.89392e-05	2073
bin	1.90104e-05	1898
bin	1.90816e-05	1975
bin	1.91528e-05	1858
bin	1.9224e-05	2067
bin	1.92952e-05	1922
bin	1.93664e-05	1928
bin	1.94376e-05	1829
bin	1.95088e-05	2038
bin	1.958e-05	1820
bin	1.96512e-05	1756
bin	1.97224e-05	1883
bin	1.97936e-05	1721
bin	1.98648e-05	1879
bin	1.9936e-05	1673
bin	2.00072e-05	1911
bin	2.00784e-05	1702
bin	2.01496e-05	1654
bin	2.02208e-05	1516
bin	2.0292e-05	1784
bin	2.03632e-05	1590
bin	2.04344e-05	1562
bin	2.05056e-05	1622
bin	2.05768e-05	1613
bin	2.0648e-05	1572
bin	2.07192e-05	1436
bin	2.07904e-05	1696
bin	2.08616e-05	1489
bin	2.09328e-05	1461
bin	2.1004e-05	1387
bin	2.10752e-05	1612
bin	2.11464e-05	1480
bin	2.12176e-05	1371
bin	2.12888e-05	1460
bin	2.136e-05	1475
bin	2.14312e-05	1444
bin	2.15024e-05	1253
bin	2.15736e-05	1478
bin	2.16448e-05	1404
bin	2.1716e-05	1337
bin	2.17872e-05	1247
bin	2.18584e-05	1568
bin	2.19296e-05	1313
bin	2.20008e-05	1322
bin	2.2072e-05	1479
bin	2.21432e-05	1368
bin	2.22144e-05	1377
bin	2.22856e-05	1304
bin	2.23568e-05	1461
bin	2.2428e-05	1407
bin	2.24992e-05	1385
bin	2.25704e-05	1276
bin	2.26416e-05	1501
bin	2.27128e-05	1358
bin	2.2784e-05	1429
bin	2.28552e-05	1467
bin	2.29264e-05	1432
bin	2.29976e-05	1416
bin	2.30688e-05	1380
bin	2.314e-05	1531
bin	2.32112e-05	1475
bin	2.32824e-05	1456
bin	2.33536e-05	1323
bin	2.34248e-05	1602
bin	2.3496e-05	1288
bin	2.35672e-05	1415
bin	2.36384e-05	1433
bin	2.37096e-05	1326
bin	2.37808e-05	1349
bin	2.3852e-05	1154
bin	2.39232e-05	1420
bin	2.39944e-05	1335
bin	2.40656e-05	1325
bin	2.41368e-05	1152
bin	2.4208e-05	1442
bin	2.42792e-05	1147
bin	2.43504e-05	1241
bin	2.44216e-05	1343
bin	2.44928e-05	1207
bin	2.4564e-05	1161
bin	2.46352e-05	1131
bin	2.47064e-05	1311
bin	2.47776e-05	1154
bin	2.48488e-05	1148
bin	2.492e-05	1059
bin	2.49912e-05	1333
bin	2.50624e-05	1061
bin	2.51336e-05	1105
bin	2.52048e-05	1218
bin	2.5276e-05	1119
bin	2.53472e-05	1155
bin	2.54184e-05	1082
bin	2.54896e-05	1308
bin	2.55608e-05	1112
bin	2.5632e-05	1101
bin	2.57032e-05	1043
bin	2.57744e-05	1246
bin	2.58456e-05	1061
bin	2.59168e-05	1151
bin	2.5988e-05	1185
bin	2.60592e-05	1116
bin	2.61304e-05	1110
bin	2.62016e-05	979
bin	2.62728e-05	1189
bin	2.6344e-05	1062
bin	2.64152e-05	1029
bin	2.64864e-05	1006
bin	2.65576e-05	1245
bin	2.66288e-05	1001
bin	2.67e-05	1116
bin	2.67712e-05	1202
bin	2.68424e-05	998
bin	2.69136e-05	1000
bin	2.69848e-05	931
bin	2.7056e-05	1189
bin	2.71272e-05	1026
bin	2.71984e-05	1045
bin	2.72696e-05	972
bin	2.73408e-05	1261
bin	2.7412e-05	997
bin	2.74832e-05	1039
bin	2.75544e-05	1163
bin	2.76256e-05	1109
bin	2.76968e-05	1027
bin	2.7768e-05	975
bin	2.78392e-05	1233
bin	2.79104e-05	973
bin	2.79816e-05	1072
bin	2.80528e-05	1037
bin	2.8124e-05	1204
bin	2.81952e-05	998
bin	2.82664e-05	1071
bin	2.83376e-05	1159
bin	2.84088e-05	1015
bin	2.848e-05	997
bin	2.85512e-05	959
bin	2.86224e-05	1144
bin	2.86936e-05	1018
bin	2.87648e-05	1053
bin	2.8836e-05	963
bin	2.89072e-05	1147
bin	2.89784e-05	951
bin	2.90496e-05	1024
bin	2.91208e-05	1057
bin	2.9192e-05	983
bin	2.92632e-05	1005
bin	2.93344e-05	948
bin	2.94056e-05	1128
bin	2.94768e-05	961
bin	2.9548e-05	949
bin	2.96192e-05	909
bin	2.96904e-05	1080
bin	2.97616e-05	848
bin	2.98328e-05	1009
bin	2.9904e-05	1027
bin	2.99752e-05	1008
bin	3.00464e-05	870
bin	3.01176e-05	880
bin	3.01888e-05	1072
bin	3.026e-05	876
bin	3.03312e-05	880
bin	3.04024e-05	869
bin	3.04736e-05	1013
bin	3.05448e-05	846
bin	3.0616e-05	925
bin	3.06872e-05	954
bin	3.07584e-05	886
bin	3.08296e-05	875
bin	3.09008e-05	863
bin	3.0972e-05	977
bin	3.10432e-05	878
bin	3.11144e-05	844
bin	3.11856e-05	834
bin	3.12568e-05	925
bin	3.1328e-05	759
bin	3.13992e-05	801
bin	3.14704e-05	830
bin	3.15416e-05	804
bin	3.16128e-05	753
bin	3.1684e-05	714
bin	3.17552e-05	785
bin	3.18264e-05	651
bin	3.18976e-05	623
bin	3.19688e-05	654
bin	3.204e-05	672
bin	3.21112e-05	607
bin	3.21824e-05	658
bin	3.22536e-05	621
bin	3.23248e-05	601
bin	3.2396e-05	527
bin	3.24672e-05	525
bin	3.25384e-05	592
bin	3.26096e-05	525
bin	3.26808e-05	532
bin	3.2752e-05	468
bin	3.28232e-05	566
bin	3.28944e-05	485
bin	3.29656e-05	502
bin	3.30368e-05	468
bin	3.3108e-05	473
bin	3.31792e-05	462
bin	3.32504e-05	466
bin	3.33216e-05	490
bin	3.33928e-05	431
bin	3.3464e-05	437
bin	3.35352e-05	393
bin	3.36064e-05	443
bin	3.36776e-05	379
bin	3.37488e-05	404
bin	3.382e-05	390
bin	3.38912e-05	429
bin	3.39624e-05	395
bin	3.40336e-05	350
bin	3.41048e-05	389
bin	3.4176e-05	377
bin	3.42472e-05	352
bin	3.43184e-05	355
bin	3.43896e-05	383
bin	3.44608e-05	348
bin	3.4532e-05	372
bin	3.46032e-05	340
bin	3.46744e-05	409
bin	3.47456e-05	361
bin	3.48168e-05	344
bin	3.4888e-05	361
bin	3.49592e-05	353
bin	3.50304e-05	329
bin	3.51016e-05	347
bin	3.51728e-05	365
bin	3.5244e-05	299
bin	3.53152e-05	339
bin	3.53864e-05	320
bin	3.54576e-05	322
bin	3.55288e-05	331
bin	3.56e-05	81197
statistic Torus3d_bub.timer 	"Life Times"
field count 6291456
field mean 3.9575747309595e-05
field stddev 3.4359371729211e-05
field sum 248.98907286544
field sqrsum 0.01728140917191
field min 5.2e-07
field max 0.000600839665469
bin	-INF	0
bin	0	14653
bin	8.544e-07	54373
bin	1.7088e-06	88943
bin	2.5632e-06	93697
bin	3.4176e-06	83992
bin	4.272e-06	83161
bin	5.1264e-06	92697
bin	5.9808e-06	89022
bin	6.8352e-06	84051
bin	7.6896e-06	89944
bin	8.544e-06	95463
bin	9.3984e-06	88493
bin	1.02528e-05	92419
bin	1.11072e-05	97746
bin	1.19616e-05	98119
bin	1.2816e-05	76905
bin	1.36704e-05	80732
bin	1.45248e-05	83620
bin	1.53792e-05	93352
bin	1.62336e-05	97197
bin	1.7088e-05	97793
bin	1.79424e-05	107404
bin	1.87968e-05	106051
bin	1.96512e-05	113302
bin	2.05056e-05	118304
bin	2.136e-05	116584
bin	2.22144e-05	116659
bin	2.30688e-05	115497
bin	2.39232e-05	114405
bin	2.47776e-05	116828
bin	2.5632e-05	103868
bin	2.64864e-05	104339
bin	2.73408e-05	104237
bin	2.81952e-05	98841
bin	2.90496e-05	95712
bin	2.9904e-05	96196
bin	3.07584e-05	91278
bin	3.16128e-05	83137
bin	3.24672e-05	76203
bin	3.33216e-05	73564
bin	3.4176e-05	68779
bin	3.50304e-05	63090
bin	3.58848e-05	58812
bin	3.67392e-05	54049
bin	3.75936e-05	49401
bin	3.8448e-05	44997
bin	3.93024e-05	41013
bin	4.01568e-05	38533
bin	4.10112e-05	35434
bin	4.18656e-05	33837
bin	4.272e-05	32089
bin	4.35744e-05	31169
bin	4.44288e-05	30868
bin	4.52832e-05	30437
bin	4.61376e-05	30927
bin	4.6992e-05	31083
bin	4.78464e-05	31270
bin	4.87008e-05	31342
bin	4.95552e-05	31822
bin	5.04096e-05	32034
bin	5.1264e-05	32754
bin	5.21184e-05	32741
bin	5.29728e-05	33040
bin	5.38272e-05	33696
bin	5.46816e-05	33829
bin	5.5536e-05	34228
bin	5.63904e-05	34523
bin	5.72448e-05	34664
bin	5.80992e-05	35328
bin	5.89536e-05	35082
bin	5.9808e-05	35856
bin	6.06624e-05	35898
bin	6.15168e-05	35662
bin	6.23712e-05	34856
bin	6.32256e-05	32937
bin	6.408e-05	31426
bin	6.49344e-05	30219
bin	6.57888e-05	29232
bin	6.66432e-05	27859
bin	6.74976e-05	26674
bin	6.8352e-05	25439
bin	6.92064e-05	24440
bin	7.00608e-05	23189
bin	7.09152e-05	22461
bin	7.17696e-05	21667
bin	7.2624e-05	20421
bin	7.34784e-05	20064
bin	7.43328e-05	20052
bin	7.51872e-05	20057
bin	7.60416e-05	19946
bin	7.6896e-05	20091
bin	7.77504e-05	20114
bin	7.86048e-05	19929
bin	7.94592e-05	20670
bin	8.03136e-05	20329
bin	8.1168e-05	20817
bin	8.20224e-05	20841
bin	8.28768e-05	21104
bin	8.37312e-05	21517
bin	8.45856e-05	21645
bin	8.544e-05	21735
bin	8.62944e-05	21735
bin	8.71488e-05	21536
bin	8.80032e-05	21679
bin	8.88576e-05	21355
bin	8.9712e-05	21251
bin	9.05664e-05	21100
bin	9.14208e-05	20587
bin	9.22752e-05	20356
bin	9.31296e-05	19441
bin	9.3984e-05	17993
bin	9.48384e-05	16773
bin	9.56928e-05	15584
bin	9.65472e-05	14332
bin	9.74016e-05	13171
bin	9.8256e-05	12475
bin	9.91104e-05	11229
bin	9.99648e-05	10468
bin	0.0001008192	9750
bin	0.0001016736	9103
bin	0.000102528	8442
bin	0.0001033824	7853
bin	0.0001042368	7552
bin	0.0001050912	7452
bin	0.0001059456	7139
bin	0.0001068	7296
bin	0.0001076544	7163
bin	0.0001085088	7016
bin	0.0001093632	7141
bin	0.0001102176	7064
bin	0.000111072	7020
bin	0.0001119264	7159
bin	0.0001127808	7097
bin	0.0001136352	7041
bin	0.0001144896	7021
bin	0.000115344	6960
bin	0.0001161984	6846
bin	0.0001170528	6896
bin	0.0001179072	6924
bin	0.0001187616	6827
bin	0.000119616	6653
bin	0.0001204704	6515
bin	0.0001213248	6365
bin	0.0001221792	6224
bin	0.0001230336	6097
bin	0.000123888	5827
bin	0.0001247424	5391
bin	0.0001255968	4816
bin	0.0001264512	4490
bin	0.0001273056	4109
bin	0.00012816	3750
bin	0.0001290144	3333
bin	0.0001298688	3149
bin	0.0001307232	2923
bin	0.0001315776	2710
bin	0.000132432	2559
bin	0.0001332864	2331
bin	0.0001341408	2099
bin	0.0001349952	2031
bin	0.0001358496	1998
bin	0.000136704	1882
bin	0.0001375584	1893
bin	0.0001384128	1931
bin	0.0001392672	1899
bin	0.0001401216	1888
bin	0.000140976	1873
bin	0.0001418304	1914
bin	0.0001426848	1870
bin	0.0001435392	1842
bin	0.0001443936	1909
bin	0.000145248	1885
bin	0.0001461024	1903
bin	0.0001469568	1933
bin	0.0001478112	1834
bin	0.0001486656	1826
bin	0.00014952	1874
bin	0.0001503744	1794
bin	0.0001512288	1909
bin	0.0001520832	1861
bin	0.0001529376	1780
bin	0.000153792	1802
bin	0.0001546464	1761
bin	0.0001555008	1627
bin	0.0001563552	1569
bin	0.0001572096	1464
bin	0.000158064	1301
bin	0.0001589184	1226
bin	0.0001597728	1139
bin	0.0001606272	1087
bin	0.0001614816	1067
bin	0.000162336	1012
bin	0.0001631904	987
bin	0.0001640448	959
bin	0.0001648992	928
bin	0.0001657536	878
bin	0.000166608	880
bin	0.0001674624	810
bin	0.0001683168	861
bin	0.0001691712	820
bin	0.0001700256	823
bin	0.00017088	802
bin	0.0001717344	789
bin	0.0001725888	843
bin	0.0001734432	865
bin	0.0001742976	853
bin	0.000175152	884
bin	0.0001760064	785
bin	0.0001768608	870
bin	0.0001777152	873
bin	0.0001785696	924
bin	0.000179424	929
bin	0.0001802784	878
bin	0.0001811328	815
bin	0.0001819872	851
bin	0.0001828416	865
bin	0.000183696	819
bin	0.0001845504	829
bin	0.0001854048	826
bin	0.0001862592	758
bin	0.0001871136	742
bin	0.000187968	694
bin	0.0001888224	716
bin	0.0001896768	693
bin	0.0001905312	642
bin	0.0001913856	580
bin	0.00019224	565
bin	0.0001930944	557
bin	0.0001939488	538
bin	0.0001948032	477
bin	0.0001956576	459
bin	0.000196512	476
bin	0.0001973664	470
bin	0.0001982208	503
bin	0.0001990752	500
bin	0.0001999296	425
bin	0.000200784	448
bin	0.0002016384	494
bin	0.0002024928	521
bin	0.0002033472	519
bin	0.0002042016	476
bin	0.000205056	505
bin	0.0002059104	534
bin	0.0002067648	504
bin	0.0002076192	535
bin	0.0002084736	526
bin	0.000209328	505
bin	0.0002101824	481
bin	0.0002110368	492
bin	0.0002118912	525
bin	0.0002127456	504
bin	0.0002136	477
bin	0.0002144544	490
bin	0.0002153088	493
bin	0.0002161632	438
bin	0.0002170176	419
bin	0.000217872	376
bin	0.0002187264	328
bin	0.0002195808	315
bin	0.0002204352	321
bin	0.0002212896	253
bin	0.000222144	256
bin	0.0002229984	279
bin	0.0002238528	243
bin	0.0002247072	240
bin	0.0002255616	239
bin	0.000226416	210
bin	0.0002272704	201
bin	0.0002281248	191
bin	0.0002289792	247
bin	0.0002298336	223
bin	0.000230688	211
bin	0.0002315424	191
bin	0.0002323968	212
bin	0.0002332512	183
bin	0.0002341056	195
bin	0.00023496	195
bin	0.0002358144	200
bin	0.0002366688	163
bin	0.0002375232	153
bin	0.0002383776	163
bin	0.000239232	183
bin	0.0002400864	162
bin	0.0002409408	172
bin	0.0002417952	167
bin	0.0002426496	171
bin	0.000243504	162
bin	0.0002443584	169
bin	0.0002452128	156
bin	0.0002460672	150
bin	0.0002469216	147
bin	0.000247776	139
bin	0.0002486304	143
bin	0.0002494848	120
bin	0.0002503392	116
bin	0.0002511936	103
bin	0.000252048	115
bin	0.0002529024	98
bin	0.0002537568	94
bin	0.0002546112	82
bin	0.0002554656	92
bin	0.00025632	63
bin	0.0002571744	54
bin	0.0002580288	48
bin	0.0002588832	47
bin	0.0002597376	50
bin	0.000260592	48
bin	0.0002614464	65
bin	0.0002623008	62
bin	0.0002631552	59
bin	0.0002640096	43
bin	0.000264864	60
bin	0.0002657184	53
bin	0.0002665728	72
bin	0.0002674272	73
bin	0.0002682816	62
bin	0.000269136	53
bin	0.0002699904	56
bin	0.0002708448	56
bin	0.0002716992	51
bin	0.0002725536	57
bin	0.000273408	69
bin	0.0002742624	53
bin	0.0002751168	46
bin	0.0002759712	56
bin	0.0002768256	59
bin	0.00027768	49
bin	0.0002785344	39
bin	0.0002793888	40
bin	0.0002802432	37
bin	0.0002810976	44
bin	0.000281952	39
bin	0.0002828064	20
bin	0.0002836608	35
bin	0.0002845152	33
bin	0.0002853696	25
bin	0.000286224	26
bin	0.0002870784	34
bin	0.0002879328	27
bin	0.0002887872	21
bin	0.0002896416	20
bin	0.000290496	24
bin	0.0002913504	17
bin	0.0002922048	21
bin	0.0002930592	22
bin	0.0002939136	24
bin	0.000294768	29
bin	0.0002956224	38
bin	0.0002964768	31
bin	0.0002973312	22
bin	0.0002981856	24
bin	0.00029904	34
bin	0.0002998944	31
bin	0.0003007488	25
bin	0.0003016032	38
bin	0.0003024576	37
bin	0.000303312	27
bin	0.0003041664	23
bin	0.0003050208	21
bin	0.0003058752	36
bin	0.0003067296	25
bin	0.000307584	26
bin	0.0003084384	21
bin	0.0003092928	21
bin	0.0003101472	20
bin	0.0003110016	21
bin	0.000311856	18
bin	0.0003127104	22
bin	0.0003135648	24
bin	0.0003144192	32
bin	0.0003152736	14
bin	0.000316128	17
bin	0.0003169824	18
bin	0.0003178368	19
bin	0.0003186912	12
bin	0.0003195456	18
bin	0.0003204	21
bin	0.0003212544	13
bin	0.0003221088	18
bin	0.0003229632	12
bin	0.0003238176	11
bin	0.000324672	14
bin	0.0003255264	10
bin	0.0003263808	9
bin	0.0003272352	15
bin	0.0003280896	15
bin	0.000328944	18
bin	0.0003297984	20
bin	0.0003306528	16
bin	0.0003315072	16
bin	0.0003323616	9
bin	0.000333216	9
bin	0.0003340704	9
bin	0.0003349248	12
bin	0.0003357792	13
bin	0.0003366336	14
bin	0.000337488	9
bin	0.0003383424	17
bin	0.0003391968	10
bin	0.0003400512	11
bin	0.0003409056	11
bin	0.00034176	7
bin	0.0003426144	7
bin	0.0003434688	3
bin	0.0003443232	7
bin	0.0003451776	10
bin	0.000346032	10
bin	0.0003468864	5
bin	0.0003477408	7
bin	0.0003485952	3
bin	0.0003494496	6
bin	0.000350304	6
bin	0.0003511584	4
bin	0.0003520128	6
bin	0.0003528672	6
bin	0.0003537216	11
bin	0.000354576	4
bin	0.0003554304	7
bin	0.0003562848	4
bin	0.0003571392	7
bin	0.0003579936	1
bin	0.000358848	7
bin	0.0003597024	5
bin	0.0003605568	6
bin	0.0003614112	5
bin	0.0003622656	7
bin	0.00036312	8
bin	0.0003639744	8
bin	0.0003648288	5
bin	0.0003656832	12
bin	0.0003665376	8
bin	0.000367392	5
bin	0.0003682464	9
bin	0.0003691008	3
bin	0.0003699552	3
bin	0.0003708096	9
bin	0.000371664	11
bin	0.0003725184	3
bin	0.0003733728	2
bin	0.0003742272	1
bin	0.0003750816	3
bin	0.000375936	2
bin	0.0003767904	2
bin	0.0003776448	0
bin	0.0003784992	2
bin	0.0003793536	1
bin	0.000380208	1
bin	0.0003810624	1
bin	0.0003819168	2
bin	0.0003827712	2
bin	0.0003836256	2
bin	0.00038448	0
bin	0.0003853344	0
bin	0.0003861888	0
bin	0.0003870432	1
bin	0.0003878976	0
bin	0.000388752	6
bin	0.0003896064	0
bin	0.0003904608	2
bin	0.0003913152	2
bin	0.0003921696	3
bin	0.000393024	1
bin	0.0003938784	1
bin	0.0003947328	1
bin	0.0003955872	7
bin	0.0003964416	5
bin	0.000397296	5
bin	0.0003981504	1
bin	0.0003990048	2
bin	0.0003998592	1
bin	0.0004007136	3
bin	0.000401568	4
bin	0.0004024224	3
bin	0.0004032768	4
bin	0.0004041312	3
bin	0.0004049856	0
bin	0.00040584	1
bin	0.0004066944	0
bin	0.0004075488	0
bin	0.0004084032	1
bin	0.0004092576	3
bin	0.000410112	0
bin	0.0004109664	0
bin	0.0004118208	2
bin	0.0004126752	0
bin	0.0004135296	1
bin	0.000414384	0
bin	0.0004152384	1
bin	0.0004160928	0
bin	0.0004169472	0
bin	0.0004178016	0
bin	0.000418656	0
bin	0.0004195104	0
bin	0.0004203648	2
bin	0.0004212192	0
bin	0.0004220736	0
bin	0.000422928	0
bin	0.0004237824	0
bin	0.0004246368	0
bin	0.0004254912	0
bin	0.0004263456	1
bin	0.0004272	38
