version 2
run Butterfly-113-20120709-13:08:09-24147
attr alg 1
attr buf 8
attr configname Butterfly
attr datetime 20120709-13:08:09
attr delta 1
attr experiment Butterfly
attr ext false
attr inifile altro.ini
attr iterationvars "$buf=8, $ext=false, $ofedge=1, $delta=1, $alg=1"
attr iterationvars2 "$buf=8, $ext=false, $ofedge=1, $delta=1, $alg=1, $repetition=0"
attr measurement "$buf=8, $ext=false, $ofedge=1, $delta=1, $alg=1"
attr network Torus3d_bub
attr ofedge 1
attr processid 24147
attr repetition 0
attr replication #0
attr resultdir altro-results
attr runnumber 113
attr seedset 113

scalar . 	alg 	1
scalar . 	buf 	8
scalar . 	delta 	1
scalar . 	ofedge 	1
scalar Torus3d_bub.timer 	#endTime 	0.000948741665207
scalar Torus3d_bub.timer 	#totalHops 	35243359
scalar Torus3d_bub.timer 	#totalPacks 	6291456
scalar Torus3d_bub.timer 	#totalDerouted 	4350699
scalar Torus3d_bub.timer 	#totalOutFlanked 	4350699
scalar Torus3d_bub.timer 	#totalCQRed 	0
scalar Torus3d_bub.timer 	#LB 	0.000786432
scalar Torus3d_bub.timer 	#ratio 	0.82892111608529
statistic Torus3d_bub.timer 	"Hop Times"
field count 6291456
field mean 1.0998061230779e-05
field stddev 1.4956531753208e-05
field sum 69.19381831875
field sqrsum 0.0021683827577341
field min 3.95833246e-07
field max 0.000337683332849
bin	-INF	0
bin	0	0
bin	7.12e-08	0
bin	1.424e-07	0
bin	2.136e-07	0
bin	2.848e-07	0
bin	3.56e-07	120
bin	4.272e-07	5096
bin	4.984e-07	15456
bin	5.696e-07	10481
bin	6.408e-07	11551
bin	7.12e-07	16349
bin	7.832e-07	13536
bin	8.544e-07	21904
bin	9.256e-07	18498
bin	9.968e-07	23958
bin	1.068e-06	25874
bin	1.1392e-06	28336
bin	1.2104e-06	27469
bin	1.2816e-06	33866
bin	1.3528e-06	29437
bin	1.424e-06	28888
bin	1.4952e-06	37934
bin	1.5664e-06	32114
bin	1.6376e-06	33513
bin	1.7088e-06	39754
bin	1.78e-06	43292
bin	1.8512e-06	43538
bin	1.9224e-06	42958
bin	1.9936e-06	41263
bin	2.0648e-06	52062
bin	2.136e-06	47413
bin	2.2072e-06	49000
bin	2.2784e-06	56219
bin	2.3496e-06	53374
bin	2.4208e-06	57387
bin	2.492e-06	54360
bin	2.5632e-06	55669
bin	2.6344e-06	60355
bin	2.7056e-06	51665
bin	2.7768e-06	56765
bin	2.848e-06	53915
bin	2.9192e-06	53334
bin	2.9904e-06	49629
bin	3.0616e-06	57543
bin	3.1328e-06	50615
bin	3.204e-06	52733
bin	3.2752e-06	46416
bin	3.3464e-06	46897
bin	3.4176e-06	50850
bin	3.4888e-06	43485
bin	3.56e-06	44922
bin	3.6312e-06	49109
bin	3.7024e-06	46134
bin	3.7736e-06	41144
bin	3.8448e-06	48714
bin	3.916e-06	40141
bin	3.9872e-06	41966
bin	4.0584e-06	40095
bin	4.1296e-06	43348
bin	4.2008e-06	44144
bin	4.272e-06	38741
bin	4.3432e-06	35915
bin	4.4144e-06	39500
bin	4.4856e-06	35074
bin	4.5568e-06	34269
bin	4.628e-06	37542
bin	4.6992e-06	33822
bin	4.7704e-06	33717
bin	4.8416e-06	32254
bin	4.9128e-06	35667
bin	4.984e-06	34437
bin	5.0552e-06	30836
bin	5.1264e-06	34639
bin	5.1976e-06	34318
bin	5.2688e-06	33960
bin	5.34e-06	28884
bin	5.4112e-06	36377
bin	5.4824e-06	29824
bin	5.5536e-06	28187
bin	5.6248e-06	31295
bin	5.696e-06	34621
bin	5.7672e-06	30134
bin	5.8384e-06	28448
bin	5.9096e-06	28325
bin	5.9808e-06	30213
bin	6.052e-06	27611
bin	6.1232e-06	25030
bin	6.1944e-06	28595
bin	6.2656e-06	25094
bin	6.3368e-06	24926
bin	6.408e-06	24225
bin	6.4792e-06	27798
bin	6.5504e-06	24635
bin	6.6216e-06	23563
bin	6.6928e-06	23686
bin	6.764e-06	27824
bin	6.8352e-06	23777
bin	6.9064e-06	23242
bin	6.9776e-06	26894
bin	7.0488e-06	22796
bin	7.12e-06	23109
bin	7.1912e-06	22830
bin	7.2624e-06	26325
bin	7.3336e-06	23309
bin	7.4048e-06	22003
bin	7.476e-06	21864
bin	7.5472e-06	25690
bin	7.6184e-06	21638
bin	7.6896e-06	21030
bin	7.7608e-06	24529
bin	7.832e-06	20365
bin	7.9032e-06	20160
bin	7.9744e-06	19469
bin	8.0456e-06	19077
bin	8.1168e-06	19755
bin	8.188e-06	18838
bin	8.2592e-06	18423
bin	8.3304e-06	22361
bin	8.4016e-06	18000
bin	8.4728e-06	17284
bin	8.544e-06	21011
bin	8.6152e-06	16750
bin	8.6864e-06	19064
bin	8.7576e-06	18715
bin	8.8288e-06	18558
bin	8.9e-06	19002
bin	8.9712e-06	16622
bin	9.0424e-06	18400
bin	9.1136e-06	20108
bin	9.1848e-06	18248
bin	9.256e-06	15842
bin	9.3272e-06	17972
bin	9.3984e-06	15948
bin	9.4696e-06	18342
bin	9.5408e-06	17969
bin	9.612e-06	17731
bin	9.6832e-06	16341
bin	9.7544e-06	15766
bin	9.8256e-06	15698
bin	9.8968e-06	19513
bin	9.968e-06	15599
bin	1.00392e-05	15095
bin	1.01104e-05	16825
bin	1.01816e-05	14671
bin	1.02528e-05	14773
bin	1.0324e-05	14109
bin	1.03952e-05	14016
bin	1.04664e-05	13933
bin	1.05376e-05	13605
bin	1.06088e-05	13324
bin	1.068e-05	15088
bin	1.07512e-05	13381
bin	1.08224e-05	12843
bin	1.08936e-05	16620
bin	1.09648e-05	12950
bin	1.1036e-05	13006
bin	1.11072e-05	12531
bin	1.11784e-05	14582
bin	1.12496e-05	12750
bin	1.13208e-05	12877
bin	1.1392e-05	12136
bin	1.14632e-05	16383
bin	1.15344e-05	12521
bin	1.16056e-05	12583
bin	1.16768e-05	14305
bin	1.1748e-05	12409
bin	1.18192e-05	12436
bin	1.18904e-05	14130
bin	1.19616e-05	16170
bin	1.20328e-05	14550
bin	1.2104e-05	12530
bin	1.21752e-05	13878
bin	1.22464e-05	16059
bin	1.23176e-05	11925
bin	1.23888e-05	11841
bin	1.246e-05	17663
bin	1.25312e-05	11928
bin	1.26024e-05	12537
bin	1.26736e-05	11335
bin	1.27448e-05	15512
bin	1.2816e-05	11260
bin	1.28872e-05	12210
bin	1.29584e-05	10790
bin	1.30296e-05	11733
bin	1.31008e-05	10548
bin	1.3172e-05	10314
bin	1.32432e-05	10154
bin	1.33144e-05	10118
bin	1.33856e-05	9992
bin	1.34568e-05	9636
bin	1.3528e-05	10368
bin	1.35992e-05	9595
bin	1.36704e-05	9355
bin	1.37416e-05	9046
bin	1.38128e-05	9127
bin	1.3884e-05	9032
bin	1.39552e-05	9050
bin	1.40264e-05	8950
bin	1.40976e-05	8710
bin	1.41688e-05	8801
bin	1.424e-05	8807
bin	1.43112e-05	8609
bin	1.43824e-05	8715
bin	1.44536e-05	8669
bin	1.45248e-05	8456
bin	1.4596e-05	8595
bin	1.46672e-05	8438
bin	1.47384e-05	8378
bin	1.48096e-05	8524
bin	1.48808e-05	8427
bin	1.4952e-05	8393
bin	1.50232e-05	8489
bin	1.50944e-05	8313
bin	1.51656e-05	8371
bin	1.52368e-05	8188
bin	1.5308e-05	8034
bin	1.53792e-05	7982
bin	1.54504e-05	8022
bin	1.55216e-05	8001
bin	1.55928e-05	7853
bin	1.5664e-05	7943
bin	1.57352e-05	7847
bin	1.58064e-05	7687
bin	1.58776e-05	7655
bin	1.59488e-05	7779
bin	1.602e-05	7545
bin	1.60912e-05	7539
bin	1.61624e-05	7503
bin	1.62336e-05	7349
bin	1.63048e-05	7285
bin	1.6376e-05	7169
bin	1.64472e-05	7331
bin	1.65184e-05	7154
bin	1.65896e-05	6994
bin	1.66608e-05	7067
bin	1.6732e-05	6889
bin	1.68032e-05	6899
bin	1.68744e-05	6599
bin	1.69456e-05	6424
bin	1.70168e-05	6470
bin	1.7088e-05	6518
bin	1.71592e-05	6310
bin	1.72304e-05	6299
bin	1.73016e-05	6210
bin	1.73728e-05	6109
bin	1.7444e-05	6050
bin	1.75152e-05	6134
bin	1.75864e-05	5954
bin	1.76576e-05	6046
bin	1.77288e-05	5907
bin	1.78e-05	5787
bin	1.78712e-05	5705
bin	1.79424e-05	5618
bin	1.80136e-05	5576
bin	1.80848e-05	5730
bin	1.8156e-05	5523
bin	1.82272e-05	5447
bin	1.82984e-05	5369
bin	1.83696e-05	5346
bin	1.84408e-05	5423
bin	1.8512e-05	5241
bin	1.85832e-05	5275
bin	1.86544e-05	5138
bin	1.87256e-05	5190
bin	1.87968e-05	5078
bin	1.8868e-05	5242
bin	1.89392e-05	5105
bin	1.90104e-05	5122
bin	1.90816e-05	5090
bin	1.91528e-05	5052
bin	1.9224e-05	4959
bin	1.92952e-05	4870
bin	1.93664e-05	5005
bin	1.94376e-05	4852
bin	1.95088e-05	5029
bin	1.958e-05	4793
bin	1.96512e-05	4815
bin	1.97224e-05	4800
bin	1.97936e-05	4920
bin	1.98648e-05	4814
bin	1.9936e-05	4690
bin	2.00072e-05	4764
bin	2.00784e-05	4609
bin	2.01496e-05	4711
bin	2.02208e-05	4782
bin	2.0292e-05	4761
bin	2.03632e-05	4606
bin	2.04344e-05	4656
bin	2.05056e-05	4510
bin	2.05768e-05	4547
bin	2.0648e-05	4556
bin	2.07192e-05	4484
bin	2.07904e-05	4596
bin	2.08616e-05	4389
bin	2.09328e-05	4422
bin	2.1004e-05	4347
bin	2.10752e-05	4309
bin	2.11464e-05	4268
bin	2.12176e-05	4255
bin	2.12888e-05	4211
bin	2.136e-05	4164
bin	2.14312e-05	4203
bin	2.15024e-05	4014
bin	2.15736e-05	3961
bin	2.16448e-05	3934
bin	2.1716e-05	4035
bin	2.17872e-05	4051
bin	2.18584e-05	3884
bin	2.19296e-05	3886
bin	2.20008e-05	3961
bin	2.2072e-05	3962
bin	2.21432e-05	4037
bin	2.22144e-05	4004
bin	2.22856e-05	3963
bin	2.23568e-05	3924
bin	2.2428e-05	3781
bin	2.24992e-05	3803
bin	2.25704e-05	3837
bin	2.26416e-05	3766
bin	2.27128e-05	3739
bin	2.2784e-05	3789
bin	2.28552e-05	3838
bin	2.29264e-05	3799
bin	2.29976e-05	3835
bin	2.30688e-05	3763
bin	2.314e-05	3762
bin	2.32112e-05	3642
bin	2.32824e-05	3583
bin	2.33536e-05	3582
bin	2.34248e-05	3558
bin	2.3496e-05	3533
bin	2.35672e-05	3620
bin	2.36384e-05	3556
bin	2.37096e-05	3528
bin	2.37808e-05	3482
bin	2.3852e-05	3603
bin	2.39232e-05	3534
bin	2.39944e-05	3381
bin	2.40656e-05	3513
bin	2.41368e-05	3516
bin	2.4208e-05	3464
bin	2.42792e-05	3478
bin	2.43504e-05	3460
bin	2.44216e-05	3311
bin	2.44928e-05	3367
bin	2.4564e-05	3390
bin	2.46352e-05	3343
bin	2.47064e-05	3341
bin	2.47776e-05	3317
bin	2.48488e-05	3322
bin	2.492e-05	3351
bin	2.49912e-05	3262
bin	2.50624e-05	3078
bin	2.51336e-05	3196
bin	2.52048e-05	3094
bin	2.5276e-05	3073
bin	2.53472e-05	2937
bin	2.54184e-05	3067
bin	2.54896e-05	2903
bin	2.55608e-05	2814
bin	2.5632e-05	2964
bin	2.57032e-05	2959
bin	2.57744e-05	2818
bin	2.58456e-05	2848
bin	2.59168e-05	2723
bin	2.5988e-05	2757
bin	2.60592e-05	2689
bin	2.61304e-05	2671
bin	2.62016e-05	2694
bin	2.62728e-05	2654
bin	2.6344e-05	2549
bin	2.64152e-05	2585
bin	2.64864e-05	2535
bin	2.65576e-05	2476
bin	2.66288e-05	2512
bin	2.67e-05	2561
bin	2.67712e-05	2430
bin	2.68424e-05	2476
bin	2.69136e-05	2400
bin	2.69848e-05	2467
bin	2.7056e-05	2450
bin	2.71272e-05	2229
bin	2.71984e-05	2359
bin	2.72696e-05	2354
bin	2.73408e-05	2369
bin	2.7412e-05	2188
bin	2.74832e-05	2357
bin	2.75544e-05	2271
bin	2.76256e-05	2187
bin	2.76968e-05	2208
bin	2.7768e-05	2245
bin	2.78392e-05	2306
bin	2.79104e-05	2150
bin	2.79816e-05	2169
bin	2.80528e-05	2183
bin	2.8124e-05	2086
bin	2.81952e-05	2080
bin	2.82664e-05	2034
bin	2.83376e-05	2086
bin	2.84088e-05	2046
bin	2.848e-05	1985
bin	2.85512e-05	2070
bin	2.86224e-05	1960
bin	2.86936e-05	1887
bin	2.87648e-05	2010
bin	2.8836e-05	2069
bin	2.89072e-05	1942
bin	2.89784e-05	1927
bin	2.90496e-05	1979
bin	2.91208e-05	1940
bin	2.9192e-05	1953
bin	2.92632e-05	1967
bin	2.93344e-05	1948
bin	2.94056e-05	1929
bin	2.94768e-05	1889
bin	2.9548e-05	1866
bin	2.96192e-05	1872
bin	2.96904e-05	1855
bin	2.97616e-05	1779
bin	2.98328e-05	1791
bin	2.9904e-05	1774
bin	2.99752e-05	1723
bin	3.00464e-05	1752
bin	3.01176e-05	1781
bin	3.01888e-05	1737
bin	3.026e-05	1698
bin	3.03312e-05	1739
bin	3.04024e-05	1678
bin	3.04736e-05	1701
bin	3.05448e-05	1661
bin	3.0616e-05	1736
bin	3.06872e-05	1636
bin	3.07584e-05	1663
bin	3.08296e-05	1688
bin	3.09008e-05	1760
bin	3.0972e-05	1630
bin	3.10432e-05	1569
bin	3.11144e-05	1635
bin	3.11856e-05	1582
bin	3.12568e-05	1630
bin	3.1328e-05	1594
bin	3.13992e-05	1649
bin	3.14704e-05	1548
bin	3.15416e-05	1603
bin	3.16128e-05	1488
bin	3.1684e-05	1606
bin	3.17552e-05	1514
bin	3.18264e-05	1491
bin	3.18976e-05	1559
bin	3.19688e-05	1521
bin	3.204e-05	1503
bin	3.21112e-05	1470
bin	3.21824e-05	1497
bin	3.22536e-05	1457
bin	3.23248e-05	1515
bin	3.2396e-05	1406
bin	3.24672e-05	1430
bin	3.25384e-05	1464
bin	3.26096e-05	1399
bin	3.26808e-05	1389
bin	3.2752e-05	1312
bin	3.28232e-05	1432
bin	3.28944e-05	1346
bin	3.29656e-05	1410
bin	3.30368e-05	1298
bin	3.3108e-05	1359
bin	3.31792e-05	1348
bin	3.32504e-05	1377
bin	3.33216e-05	1284
bin	3.33928e-05	1296
bin	3.3464e-05	1289
bin	3.35352e-05	1320
bin	3.36064e-05	1294
bin	3.36776e-05	1236
bin	3.37488e-05	1321
bin	3.382e-05	1226
bin	3.38912e-05	1234
bin	3.39624e-05	1254
bin	3.40336e-05	1232
bin	3.41048e-05	1242
bin	3.4176e-05	1165
bin	3.42472e-05	1208
bin	3.43184e-05	1209
bin	3.43896e-05	1125
bin	3.44608e-05	1198
bin	3.4532e-05	1160
bin	3.46032e-05	1134
bin	3.46744e-05	1125
bin	3.47456e-05	1087
bin	3.48168e-05	1185
bin	3.4888e-05	1159
bin	3.49592e-05	1175
bin	3.50304e-05	1128
bin	3.51016e-05	1096
bin	3.51728e-05	1138
bin	3.5244e-05	1075
bin	3.53152e-05	1072
bin	3.53864e-05	1049
bin	3.54576e-05	1102
bin	3.55288e-05	1114
bin	3.56e-05	293673
statistic Torus3d_bub.timer 	"Life Times"
field count 6291456
field mean 4.8986329252624e-05
field stddev 4.557100467853e-05
field sum 308.1953350944
field sqrsum 0.028162926361529
field min 5.2e-07
field max 0.000544103666262
bin	-INF	0
bin	0	14518
bin	8.544e-07	51339
bin	1.7088e-06	71877
bin	2.5632e-06	73429
bin	3.4176e-06	77872
bin	4.272e-06	82394
bin	5.1264e-06	85732
bin	5.9808e-06	89113
bin	6.8352e-06	85578
bin	7.6896e-06	92662
bin	8.544e-06	98804
bin	9.3984e-06	101080
bin	1.02528e-05	101169
bin	1.11072e-05	109026
bin	1.19616e-05	110979
bin	1.2816e-05	92384
bin	1.36704e-05	98663
bin	1.45248e-05	95268
bin	1.53792e-05	100885
bin	1.62336e-05	95715
bin	1.7088e-05	98954
bin	1.79424e-05	96117
bin	1.87968e-05	91801
bin	1.96512e-05	88250
bin	2.05056e-05	94642
bin	2.136e-05	91297
bin	2.22144e-05	93448
bin	2.30688e-05	93321
bin	2.39232e-05	90265
bin	2.47776e-05	83614
bin	2.5632e-05	73846
bin	2.64864e-05	68416
bin	2.73408e-05	63602
bin	2.81952e-05	60574
bin	2.90496e-05	58497
bin	2.9904e-05	55780
bin	3.07584e-05	53072
bin	3.16128e-05	50662
bin	3.24672e-05	46922
bin	3.33216e-05	43231
bin	3.4176e-05	40696
bin	3.50304e-05	38837
bin	3.58848e-05	37852
bin	3.67392e-05	37069
bin	3.75936e-05	37750
bin	3.8448e-05	38022
bin	3.93024e-05	38039
bin	4.01568e-05	38241
bin	4.10112e-05	38793
bin	4.18656e-05	38727
bin	4.272e-05	39292
bin	4.35744e-05	39825
bin	4.44288e-05	40214
bin	4.52832e-05	40367
bin	4.61376e-05	40658
bin	4.6992e-05	41000
bin	4.78464e-05	41143
bin	4.87008e-05	41113
bin	4.95552e-05	40335
bin	5.04096e-05	38909
bin	5.1264e-05	38091
bin	5.21184e-05	35736
bin	5.29728e-05	34457
bin	5.38272e-05	33913
bin	5.46816e-05	32799
bin	5.5536e-05	31760
bin	5.63904e-05	31236
bin	5.72448e-05	30489
bin	5.80992e-05	29661
bin	5.89536e-05	28666
bin	5.9808e-05	28454
bin	6.06624e-05	28085
bin	6.15168e-05	28350
bin	6.23712e-05	28678
bin	6.32256e-05	29003
bin	6.408e-05	29368
bin	6.49344e-05	28948
bin	6.57888e-05	29290
bin	6.66432e-05	29352
bin	6.74976e-05	29719
bin	6.8352e-05	29432
bin	6.92064e-05	29945
bin	7.00608e-05	30085
bin	7.09152e-05	29867
bin	7.17696e-05	30214
bin	7.2624e-05	30371
bin	7.34784e-05	30519
bin	7.43328e-05	30374
bin	7.51872e-05	29553
bin	7.60416e-05	28973
bin	7.6896e-05	28365
bin	7.77504e-05	27269
bin	7.86048e-05	26534
bin	7.94592e-05	25910
bin	8.03136e-05	24764
bin	8.1168e-05	23787
bin	8.20224e-05	23167
bin	8.28768e-05	22189
bin	8.37312e-05	21691
bin	8.45856e-05	20802
bin	8.544e-05	20524
bin	8.62944e-05	19958
bin	8.71488e-05	19851
bin	8.80032e-05	20012
bin	8.88576e-05	20222
bin	8.9712e-05	20235
bin	9.05664e-05	19500
bin	9.14208e-05	19674
bin	9.22752e-05	19463
bin	9.31296e-05	19442
bin	9.3984e-05	19529
bin	9.48384e-05	19431
bin	9.56928e-05	18976
bin	9.65472e-05	19094
bin	9.74016e-05	18549
bin	9.8256e-05	18176
bin	9.91104e-05	17710
bin	9.99648e-05	17418
bin	0.0001008192	16657
bin	0.0001016736	15844
bin	0.000102528	15347
bin	0.0001033824	14591
bin	0.0001042368	14131
bin	0.0001050912	13331
bin	0.0001059456	12962
bin	0.0001068	12289
bin	0.0001076544	11953
bin	0.0001085088	11749
bin	0.0001093632	11210
bin	0.0001102176	10944
bin	0.000111072	10716
bin	0.0001119264	10625
bin	0.0001127808	10526
bin	0.0001136352	10237
bin	0.0001144896	10191
bin	0.000115344	9977
bin	0.0001161984	10032
bin	0.0001170528	9817
bin	0.0001179072	9662
bin	0.0001187616	9614
bin	0.000119616	9375
bin	0.0001204704	9453
bin	0.0001213248	9460
bin	0.0001221792	9393
bin	0.0001230336	9168
bin	0.000123888	8990
bin	0.0001247424	8805
bin	0.0001255968	8579
bin	0.0001264512	8263
bin	0.0001273056	7962
bin	0.00012816	7624
bin	0.0001290144	7357
bin	0.0001298688	7157
bin	0.0001307232	6928
bin	0.0001315776	6665
bin	0.000132432	6631
bin	0.0001332864	6394
bin	0.0001341408	6245
bin	0.0001349952	5993
bin	0.0001358496	5960
bin	0.000136704	5957
bin	0.0001375584	5848
bin	0.0001384128	5707
bin	0.0001392672	5757
bin	0.0001401216	5642
bin	0.000140976	5905
bin	0.0001418304	5652
bin	0.0001426848	5493
bin	0.0001435392	5537
bin	0.0001443936	5631
bin	0.000145248	5440
bin	0.0001461024	5399
bin	0.0001469568	5392
bin	0.0001478112	5292
bin	0.0001486656	5231
bin	0.00014952	5162
bin	0.0001503744	5069
bin	0.0001512288	5057
bin	0.0001520832	4865
bin	0.0001529376	4753
bin	0.000153792	4814
bin	0.0001546464	4630
bin	0.0001555008	4529
bin	0.0001563552	4528
bin	0.0001572096	4418
bin	0.000158064	4323
bin	0.0001589184	4140
bin	0.0001597728	4220
bin	0.0001606272	4034
bin	0.0001614816	4068
bin	0.000162336	4096
bin	0.0001631904	3903
bin	0.0001640448	4064
bin	0.0001648992	3952
bin	0.0001657536	3907
bin	0.000166608	3987
bin	0.0001674624	3805
bin	0.0001683168	3760
bin	0.0001691712	3613
bin	0.0001700256	3657
bin	0.00017088	3598
bin	0.0001717344	3528
bin	0.0001725888	3516
bin	0.0001734432	3430
bin	0.0001742976	3380
bin	0.000175152	3385
bin	0.0001760064	3272
bin	0.0001768608	3224
bin	0.0001777152	3226
bin	0.0001785696	3077
bin	0.000179424	3067
bin	0.0001802784	2898
bin	0.0001811328	2866
bin	0.0001819872	2732
bin	0.0001828416	2710
bin	0.000183696	2664
bin	0.0001845504	2705
bin	0.0001854048	2675
bin	0.0001862592	2608
bin	0.0001871136	2523
bin	0.000187968	2495
bin	0.0001888224	2442
bin	0.0001896768	2363
bin	0.0001905312	2335
bin	0.0001913856	2346
bin	0.00019224	2294
bin	0.0001930944	2247
bin	0.0001939488	2217
bin	0.0001948032	2214
bin	0.0001956576	2123
bin	0.000196512	2070
bin	0.0001973664	2064
bin	0.0001982208	2045
bin	0.0001990752	1935
bin	0.0001999296	1770
bin	0.000200784	1802
bin	0.0002016384	1690
bin	0.0002024928	1650
bin	0.0002033472	1564
bin	0.0002042016	1557
bin	0.000205056	1506
bin	0.0002059104	1562
bin	0.0002067648	1459
bin	0.0002076192	1423
bin	0.0002084736	1372
bin	0.000209328	1430
bin	0.0002101824	1307
bin	0.0002110368	1235
bin	0.0002118912	1194
bin	0.0002127456	1155
bin	0.0002136	1107
bin	0.0002144544	1193
bin	0.0002153088	1142
bin	0.0002161632	1072
bin	0.0002170176	1010
bin	0.000217872	990
bin	0.0002187264	1005
bin	0.0002195808	1031
bin	0.0002204352	979
bin	0.0002212896	964
bin	0.000222144	965
bin	0.0002229984	941
bin	0.0002238528	896
bin	0.0002247072	869
bin	0.0002255616	781
bin	0.000226416	771
bin	0.0002272704	702
bin	0.0002281248	706
bin	0.0002289792	660
bin	0.0002298336	753
bin	0.000230688	648
bin	0.0002315424	596
bin	0.0002323968	611
bin	0.0002332512	575
bin	0.0002341056	596
bin	0.00023496	576
bin	0.0002358144	565
bin	0.0002366688	585
bin	0.0002375232	551
bin	0.0002383776	547
bin	0.000239232	507
bin	0.0002400864	475
bin	0.0002409408	496
bin	0.0002417952	502
bin	0.0002426496	476
bin	0.000243504	448
bin	0.0002443584	452
bin	0.0002452128	417
bin	0.0002460672	401
bin	0.0002469216	414
bin	0.000247776	423
bin	0.0002486304	408
bin	0.0002494848	362
bin	0.0002503392	346
bin	0.0002511936	364
bin	0.000252048	370
bin	0.0002529024	325
bin	0.0002537568	305
bin	0.0002546112	284
bin	0.0002554656	280
bin	0.00025632	263
bin	0.0002571744	313
bin	0.0002580288	347
bin	0.0002588832	287
bin	0.0002597376	277
bin	0.000260592	290
bin	0.0002614464	317
bin	0.0002623008	277
bin	0.0002631552	265
bin	0.0002640096	281
bin	0.000264864	260
bin	0.0002657184	277
bin	0.0002665728	233
bin	0.0002674272	231
bin	0.0002682816	203
bin	0.000269136	207
bin	0.0002699904	221
bin	0.0002708448	233
bin	0.0002716992	230
bin	0.0002725536	235
bin	0.000273408	214
bin	0.0002742624	223
bin	0.0002751168	204
bin	0.0002759712	186
bin	0.0002768256	174
bin	0.00027768	180
bin	0.0002785344	190
bin	0.0002793888	167
bin	0.0002802432	162
bin	0.0002810976	135
bin	0.000281952	139
bin	0.0002828064	129
bin	0.0002836608	147
bin	0.0002845152	128
bin	0.0002853696	124
bin	0.000286224	134
bin	0.0002870784	136
bin	0.0002879328	168
bin	0.0002887872	135
bin	0.0002896416	131
bin	0.000290496	131
bin	0.0002913504	132
bin	0.0002922048	135
bin	0.0002930592	129
bin	0.0002939136	125
bin	0.000294768	160
bin	0.0002956224	138
bin	0.0002964768	120
bin	0.0002973312	104
bin	0.0002981856	101
bin	0.00029904	101
bin	0.0002998944	90
bin	0.0003007488	98
bin	0.0003016032	89
bin	0.0003024576	92
bin	0.000303312	83
bin	0.0003041664	71
bin	0.0003050208	56
bin	0.0003058752	63
bin	0.0003067296	54
bin	0.000307584	55
bin	0.0003084384	53
bin	0.0003092928	65
bin	0.0003101472	51
bin	0.0003110016	58
bin	0.000311856	64
bin	0.0003127104	61
bin	0.0003135648	45
bin	0.0003144192	52
bin	0.0003152736	61
bin	0.000316128	68
bin	0.0003169824	64
bin	0.0003178368	58
bin	0.0003186912	53
bin	0.0003195456	53
bin	0.0003204	52
bin	0.0003212544	46
bin	0.0003221088	46
bin	0.0003229632	51
bin	0.0003238176	39
bin	0.000324672	34
bin	0.0003255264	44
bin	0.0003263808	35
bin	0.0003272352	26
bin	0.0003280896	30
bin	0.000328944	26
bin	0.0003297984	26
bin	0.0003306528	25
bin	0.0003315072	41
bin	0.0003323616	48
bin	0.000333216	30
bin	0.0003340704	34
bin	0.0003349248	38
bin	0.0003357792	23
bin	0.0003366336	25
bin	0.000337488	29
bin	0.0003383424	32
bin	0.0003391968	33
bin	0.0003400512	18
bin	0.0003409056	18
bin	0.00034176	31
bin	0.0003426144	28
bin	0.0003434688	18
bin	0.0003443232	27
bin	0.0003451776	25
bin	0.000346032	15
bin	0.0003468864	18
bin	0.0003477408	19
bin	0.0003485952	24
bin	0.0003494496	16
bin	0.000350304	18
bin	0.0003511584	18
bin	0.0003520128	16
bin	0.0003528672	18
bin	0.0003537216	20
bin	0.000354576	16
bin	0.0003554304	16
bin	0.0003562848	18
bin	0.0003571392	26
bin	0.0003579936	22
bin	0.000358848	18
bin	0.0003597024	17
bin	0.0003605568	19
bin	0.0003614112	18
bin	0.0003622656	21
bin	0.00036312	22
bin	0.0003639744	19
bin	0.0003648288	18
bin	0.0003656832	16
bin	0.0003665376	25
bin	0.000367392	29
bin	0.0003682464	16
bin	0.0003691008	17
bin	0.0003699552	15
bin	0.0003708096	17
bin	0.000371664	17
bin	0.0003725184	19
bin	0.0003733728	13
bin	0.0003742272	21
bin	0.0003750816	18
bin	0.000375936	14
bin	0.0003767904	22
bin	0.0003776448	22
bin	0.0003784992	20
bin	0.0003793536	28
bin	0.000380208	13
bin	0.0003810624	13
bin	0.0003819168	9
bin	0.0003827712	18
bin	0.0003836256	12
bin	0.00038448	16
bin	0.0003853344	10
bin	0.0003861888	5
bin	0.0003870432	12
bin	0.0003878976	13
bin	0.000388752	11
bin	0.0003896064	14
bin	0.0003904608	14
bin	0.0003913152	10
bin	0.0003921696	10
bin	0.000393024	5
bin	0.0003938784	6
bin	0.0003947328	2
bin	0.0003955872	9
bin	0.0003964416	4
bin	0.000397296	6
bin	0.0003981504	9
bin	0.0003990048	9
bin	0.0003998592	2
bin	0.0004007136	3
bin	0.000401568	6
bin	0.0004024224	12
bin	0.0004032768	4
bin	0.0004041312	7
bin	0.0004049856	9
bin	0.00040584	5
bin	0.0004066944	12
bin	0.0004075488	6
bin	0.0004084032	7
bin	0.0004092576	4
bin	0.000410112	10
bin	0.0004109664	6
bin	0.0004118208	5
bin	0.0004126752	5
bin	0.0004135296	1
bin	0.000414384	8
bin	0.0004152384	10
bin	0.0004160928	4
bin	0.0004169472	4
bin	0.0004178016	3
bin	0.000418656	5
bin	0.0004195104	5
bin	0.0004203648	7
bin	0.0004212192	10
bin	0.0004220736	4
bin	0.000422928	4
bin	0.0004237824	4
bin	0.0004246368	5
bin	0.0004254912	6
bin	0.0004263456	6
bin	0.0004272	166
