version 2
run Butterfly-61-20120709-11:45:24-22811
attr alg 1
attr buf 8
attr configname Butterfly
attr datetime 20120709-11:45:24
attr delta 0.8
attr experiment Butterfly
attr ext true
attr inifile altro.ini
attr iterationvars "$buf=8, $ext=true, $ofedge=2, $delta=0.8, $alg=1"
attr iterationvars2 "$buf=8, $ext=true, $ofedge=2, $delta=0.8, $alg=1, $repetition=0"
attr measurement "$buf=8, $ext=true, $ofedge=2, $delta=0.8, $alg=1"
attr network Torus3d_bub
attr ofedge 2
attr processid 22811
attr repetition 0
attr replication #0
attr resultdir altro-results
attr runnumber 61
attr seedset 61

scalar . 	alg 	1
scalar . 	buf 	8
scalar . 	delta 	0.8
scalar . 	ofedge 	2
scalar Torus3d_bub.timer 	#endTime 	0.001129008331592
scalar Torus3d_bub.timer 	#totalHops 	46832888
scalar Torus3d_bub.timer 	#totalPacks 	6291456
scalar Torus3d_bub.timer 	#totalDerouted 	4393307
scalar Torus3d_bub.timer 	#totalOutFlanked 	4393307
scalar Torus3d_bub.timer 	#totalCQRed 	0
scalar Torus3d_bub.timer 	#LB 	0.000786432
scalar Torus3d_bub.timer 	#ratio 	0.69656881884216
statistic Torus3d_bub.timer 	"Hop Times"
field count 6291456
field mean 6.5879963118119e-06
field stddev 8.6383722037866e-06
field sum 41.448088923927
field sqrsum 0.00074253750475059
field min 4.18888816e-07
field max 0.000318025998894
bin	-INF	0
bin	0	0
bin	7.12e-08	0
bin	1.424e-07	0
bin	2.136e-07	0
bin	2.848e-07	0
bin	3.56e-07	5
bin	4.272e-07	6443
bin	4.984e-07	10238
bin	5.696e-07	11583
bin	6.408e-07	21254
bin	7.12e-07	30037
bin	7.832e-07	23340
bin	8.544e-07	28036
bin	9.256e-07	39179
bin	9.968e-07	30057
bin	1.068e-06	30534
bin	1.1392e-06	42537
bin	1.2104e-06	47228
bin	1.2816e-06	36302
bin	1.3528e-06	49641
bin	1.424e-06	46697
bin	1.4952e-06	60238
bin	1.5664e-06	52916
bin	1.6376e-06	68191
bin	1.7088e-06	70367
bin	1.78e-06	75056
bin	1.8512e-06	74179
bin	1.9224e-06	79876
bin	1.9936e-06	94032
bin	2.0648e-06	85647
bin	2.136e-06	85301
bin	2.2072e-06	78848
bin	2.2784e-06	94839
bin	2.3496e-06	79467
bin	2.4208e-06	84732
bin	2.492e-06	93003
bin	2.5632e-06	92163
bin	2.6344e-06	82283
bin	2.7056e-06	86936
bin	2.7768e-06	88420
bin	2.848e-06	79722
bin	2.9192e-06	79424
bin	2.9904e-06	76382
bin	3.0616e-06	83131
bin	3.1328e-06	69321
bin	3.204e-06	68565
bin	3.2752e-06	75671
bin	3.3464e-06	63743
bin	3.4176e-06	64012
bin	3.4888e-06	58468
bin	3.56e-06	65813
bin	3.6312e-06	58406
bin	3.7024e-06	55374
bin	3.7736e-06	54645
bin	3.8448e-06	66095
bin	3.916e-06	49605
bin	3.9872e-06	49524
bin	4.0584e-06	54685
bin	4.1296e-06	46930
bin	4.2008e-06	47570
bin	4.272e-06	45433
bin	4.3432e-06	51096
bin	4.4144e-06	43105
bin	4.4856e-06	42223
bin	4.5568e-06	41391
bin	4.628e-06	47897
bin	4.6992e-06	39338
bin	4.7704e-06	40972
bin	4.8416e-06	44600
bin	4.9128e-06	37898
bin	4.984e-06	36300
bin	5.0552e-06	37005
bin	5.1264e-06	43212
bin	5.1976e-06	35511
bin	5.2688e-06	34900
bin	5.34e-06	33682
bin	5.4112e-06	39706
bin	5.4824e-06	31540
bin	5.5536e-06	31218
bin	5.6248e-06	37061
bin	5.696e-06	29892
bin	5.7672e-06	28630
bin	5.8384e-06	28669
bin	5.9096e-06	36559
bin	5.9808e-06	27015
bin	6.052e-06	27160
bin	6.1232e-06	26282
bin	6.1944e-06	32865
bin	6.2656e-06	25885
bin	6.3368e-06	26252
bin	6.408e-06	31686
bin	6.4792e-06	26077
bin	6.5504e-06	25283
bin	6.6216e-06	25500
bin	6.6928e-06	31736
bin	6.764e-06	24504
bin	6.8352e-06	25828
bin	6.9064e-06	24715
bin	6.9776e-06	30702
bin	7.0488e-06	23457
bin	7.12e-06	23015
bin	7.1912e-06	28666
bin	7.2624e-06	22680
bin	7.3336e-06	21864
bin	7.4048e-06	21303
bin	7.476e-06	27075
bin	7.5472e-06	20746
bin	7.6184e-06	21006
bin	7.6896e-06	19776
bin	7.7608e-06	25210
bin	7.832e-06	18060
bin	7.9032e-06	17167
bin	7.9744e-06	22207
bin	8.0456e-06	15950
bin	8.1168e-06	14693
bin	8.188e-06	14538
bin	8.2592e-06	17809
bin	8.3304e-06	13376
bin	8.4016e-06	14157
bin	8.4728e-06	12990
bin	8.544e-06	18587
bin	8.6152e-06	12179
bin	8.6864e-06	12193
bin	8.7576e-06	17205
bin	8.8288e-06	11755
bin	8.9e-06	11165
bin	8.9712e-06	11330
bin	9.0424e-06	16858
bin	9.1136e-06	10930
bin	9.1848e-06	13201
bin	9.256e-06	10841
bin	9.3272e-06	14418
bin	9.3984e-06	10773
bin	9.4696e-06	11092
bin	9.5408e-06	15997
bin	9.612e-06	11160
bin	9.6832e-06	10477
bin	9.7544e-06	12873
bin	9.8256e-06	18457
bin	9.8968e-06	10545
bin	9.968e-06	10742
bin	1.00392e-05	10548
bin	1.01104e-05	14107
bin	1.01816e-05	10383
bin	1.02528e-05	12584
bin	1.0324e-05	15744
bin	1.03952e-05	12810
bin	1.04664e-05	10008
bin	1.05376e-05	12268
bin	1.06088e-05	13383
bin	1.068e-05	9448
bin	1.07512e-05	9636
bin	1.08224e-05	9194
bin	1.08936e-05	12552
bin	1.09648e-05	9060
bin	1.1036e-05	9167
bin	1.11072e-05	12007
bin	1.11784e-05	9204
bin	1.12496e-05	8227
bin	1.13208e-05	8871
bin	1.1392e-05	13807
bin	1.14632e-05	10106
bin	1.15344e-05	8398
bin	1.16056e-05	7906
bin	1.16768e-05	13268
bin	1.1748e-05	7634
bin	1.18192e-05	9810
bin	1.18904e-05	12676
bin	1.19616e-05	7768
bin	1.20328e-05	6976
bin	1.2104e-05	11648
bin	1.21752e-05	12129
bin	1.22464e-05	6957
bin	1.23176e-05	6808
bin	1.23888e-05	8569
bin	1.246e-05	11352
bin	1.25312e-05	8289
bin	1.26024e-05	6255
bin	1.26736e-05	10635
bin	1.27448e-05	8319
bin	1.2816e-05	5576
bin	1.28872e-05	5998
bin	1.29584e-05	5945
bin	1.30296e-05	5511
bin	1.31008e-05	5503
bin	1.3172e-05	5270
bin	1.32432e-05	5713
bin	1.33144e-05	5105
bin	1.33856e-05	5157
bin	1.34568e-05	5372
bin	1.3528e-05	5420
bin	1.35992e-05	4887
bin	1.36704e-05	5186
bin	1.37416e-05	5153
bin	1.38128e-05	4778
bin	1.3884e-05	4823
bin	1.39552e-05	4845
bin	1.40264e-05	4891
bin	1.40976e-05	4742
bin	1.41688e-05	4750
bin	1.424e-05	4834
bin	1.43112e-05	4840
bin	1.43824e-05	4494
bin	1.44536e-05	4630
bin	1.45248e-05	4697
bin	1.4596e-05	4529
bin	1.46672e-05	4459
bin	1.47384e-05	4315
bin	1.48096e-05	4519
bin	1.48808e-05	4233
bin	1.4952e-05	4336
bin	1.50232e-05	4442
bin	1.50944e-05	4391
bin	1.51656e-05	4072
bin	1.52368e-05	4201
bin	1.5308e-05	4168
bin	1.53792e-05	3947
bin	1.54504e-05	3726
bin	1.55216e-05	3687
bin	1.55928e-05	3921
bin	1.5664e-05	3494
bin	1.57352e-05	3490
bin	1.58064e-05	3441
bin	1.58776e-05	3331
bin	1.59488e-05	3116
bin	1.602e-05	2978
bin	1.60912e-05	3163
bin	1.61624e-05	3035
bin	1.62336e-05	2893
bin	1.63048e-05	2768
bin	1.6376e-05	2951
bin	1.64472e-05	2644
bin	1.65184e-05	2610
bin	1.65896e-05	2647
bin	1.66608e-05	2384
bin	1.6732e-05	2479
bin	1.68032e-05	2308
bin	1.68744e-05	2429
bin	1.69456e-05	2409
bin	1.70168e-05	2263
bin	1.7088e-05	2177
bin	1.71592e-05	2443
bin	1.72304e-05	2190
bin	1.73016e-05	2178
bin	1.73728e-05	2343
bin	1.7444e-05	2218
bin	1.75152e-05	2183
bin	1.75864e-05	2082
bin	1.76576e-05	2343
bin	1.77288e-05	2178
bin	1.78e-05	2178
bin	1.78712e-05	2058
bin	1.79424e-05	2280
bin	1.80136e-05	2037
bin	1.80848e-05	2043
bin	1.8156e-05	2224
bin	1.82272e-05	1998
bin	1.82984e-05	2071
bin	1.83696e-05	1906
bin	1.84408e-05	2102
bin	1.8512e-05	2039
bin	1.85832e-05	1939
bin	1.86544e-05	1869
bin	1.87256e-05	2115
bin	1.87968e-05	1966
bin	1.8868e-05	1991
bin	1.89392e-05	1985
bin	1.90104e-05	1863
bin	1.90816e-05	1926
bin	1.91528e-05	1726
bin	1.9224e-05	2014
bin	1.92952e-05	1945
bin	1.93664e-05	1941
bin	1.94376e-05	1779
bin	1.95088e-05	2037
bin	1.958e-05	1799
bin	1.96512e-05	1792
bin	1.97224e-05	1927
bin	1.97936e-05	1738
bin	1.98648e-05	1762
bin	1.9936e-05	1674
bin	2.00072e-05	1793
bin	2.00784e-05	1757
bin	2.01496e-05	1633
bin	2.02208e-05	1581
bin	2.0292e-05	1804
bin	2.03632e-05	1639
bin	2.04344e-05	1543
bin	2.05056e-05	1697
bin	2.05768e-05	1516
bin	2.0648e-05	1548
bin	2.07192e-05	1405
bin	2.07904e-05	1637
bin	2.08616e-05	1531
bin	2.09328e-05	1456
bin	2.1004e-05	1365
bin	2.10752e-05	1547
bin	2.11464e-05	1476
bin	2.12176e-05	1398
bin	2.12888e-05	1504
bin	2.136e-05	1342
bin	2.14312e-05	1405
bin	2.15024e-05	1315
bin	2.15736e-05	1449
bin	2.16448e-05	1496
bin	2.1716e-05	1341
bin	2.17872e-05	1251
bin	2.18584e-05	1517
bin	2.19296e-05	1342
bin	2.20008e-05	1297
bin	2.2072e-05	1464
bin	2.21432e-05	1381
bin	2.22144e-05	1400
bin	2.22856e-05	1256
bin	2.23568e-05	1475
bin	2.2428e-05	1438
bin	2.24992e-05	1416
bin	2.25704e-05	1283
bin	2.26416e-05	1604
bin	2.27128e-05	1317
bin	2.2784e-05	1361
bin	2.28552e-05	1512
bin	2.29264e-05	1454
bin	2.29976e-05	1442
bin	2.30688e-05	1290
bin	2.314e-05	1470
bin	2.32112e-05	1454
bin	2.32824e-05	1397
bin	2.33536e-05	1329
bin	2.34248e-05	1620
bin	2.3496e-05	1270
bin	2.35672e-05	1345
bin	2.36384e-05	1462
bin	2.37096e-05	1376
bin	2.37808e-05	1363
bin	2.3852e-05	1279
bin	2.39232e-05	1506
bin	2.39944e-05	1356
bin	2.40656e-05	1325
bin	2.41368e-05	1170
bin	2.4208e-05	1475
bin	2.42792e-05	1220
bin	2.43504e-05	1157
bin	2.44216e-05	1337
bin	2.44928e-05	1229
bin	2.4564e-05	1204
bin	2.46352e-05	1131
bin	2.47064e-05	1286
bin	2.47776e-05	1174
bin	2.48488e-05	1149
bin	2.492e-05	1049
bin	2.49912e-05	1390
bin	2.50624e-05	1051
bin	2.51336e-05	1055
bin	2.52048e-05	1229
bin	2.5276e-05	1134
bin	2.53472e-05	1113
bin	2.54184e-05	1100
bin	2.54896e-05	1332
bin	2.55608e-05	1168
bin	2.5632e-05	1101
bin	2.57032e-05	1085
bin	2.57744e-05	1303
bin	2.58456e-05	1047
bin	2.59168e-05	1081
bin	2.5988e-05	1220
bin	2.60592e-05	1143
bin	2.61304e-05	1048
bin	2.62016e-05	1041
bin	2.62728e-05	1146
bin	2.6344e-05	1117
bin	2.64152e-05	1077
bin	2.64864e-05	1057
bin	2.65576e-05	1236
bin	2.66288e-05	1018
bin	2.67e-05	1011
bin	2.67712e-05	1147
bin	2.68424e-05	1041
bin	2.69136e-05	991
bin	2.69848e-05	1011
bin	2.7056e-05	1145
bin	2.71272e-05	1050
bin	2.71984e-05	1054
bin	2.72696e-05	973
bin	2.73408e-05	1231
bin	2.7412e-05	992
bin	2.74832e-05	1017
bin	2.75544e-05	1147
bin	2.76256e-05	1020
bin	2.76968e-05	1002
bin	2.7768e-05	970
bin	2.78392e-05	1202
bin	2.79104e-05	952
bin	2.79816e-05	992
bin	2.80528e-05	945
bin	2.8124e-05	1124
bin	2.81952e-05	916
bin	2.82664e-05	1029
bin	2.83376e-05	1124
bin	2.84088e-05	1047
bin	2.848e-05	1019
bin	2.85512e-05	934
bin	2.86224e-05	1236
bin	2.86936e-05	964
bin	2.87648e-05	987
bin	2.8836e-05	998
bin	2.89072e-05	1126
bin	2.89784e-05	947
bin	2.90496e-05	958
bin	2.91208e-05	1083
bin	2.9192e-05	980
bin	2.92632e-05	967
bin	2.93344e-05	920
bin	2.94056e-05	1091
bin	2.94768e-05	895
bin	2.9548e-05	957
bin	2.96192e-05	920
bin	2.96904e-05	1065
bin	2.97616e-05	874
bin	2.98328e-05	928
bin	2.9904e-05	1044
bin	2.99752e-05	881
bin	3.00464e-05	909
bin	3.01176e-05	865
bin	3.01888e-05	1015
bin	3.026e-05	854
bin	3.03312e-05	840
bin	3.04024e-05	894
bin	3.04736e-05	983
bin	3.05448e-05	860
bin	3.0616e-05	849
bin	3.06872e-05	963
bin	3.07584e-05	846
bin	3.08296e-05	844
bin	3.09008e-05	814
bin	3.0972e-05	953
bin	3.10432e-05	790
bin	3.11144e-05	816
bin	3.11856e-05	798
bin	3.12568e-05	825
bin	3.1328e-05	732
bin	3.13992e-05	754
bin	3.14704e-05	842
bin	3.15416e-05	703
bin	3.16128e-05	714
bin	3.1684e-05	697
bin	3.17552e-05	787
bin	3.18264e-05	642
bin	3.18976e-05	659
bin	3.19688e-05	652
bin	3.204e-05	696
bin	3.21112e-05	584
bin	3.21824e-05	622
bin	3.22536e-05	591
bin	3.23248e-05	577
bin	3.2396e-05	575
bin	3.24672e-05	569
bin	3.25384e-05	574
bin	3.26096e-05	518
bin	3.26808e-05	543
bin	3.2752e-05	469
bin	3.28232e-05	516
bin	3.28944e-05	510
bin	3.29656e-05	423
bin	3.30368e-05	517
bin	3.3108e-05	473
bin	3.31792e-05	456
bin	3.32504e-05	419
bin	3.33216e-05	487
bin	3.33928e-05	384
bin	3.3464e-05	448
bin	3.35352e-05	411
bin	3.36064e-05	394
bin	3.36776e-05	438
bin	3.37488e-05	416
bin	3.382e-05	457
bin	3.38912e-05	400
bin	3.39624e-05	393
bin	3.40336e-05	386
bin	3.41048e-05	405
bin	3.4176e-05	371
bin	3.42472e-05	391
bin	3.43184e-05	354
bin	3.43896e-05	412
bin	3.44608e-05	357
bin	3.4532e-05	361
bin	3.46032e-05	402
bin	3.46744e-05	376
bin	3.47456e-05	354
bin	3.48168e-05	397
bin	3.4888e-05	385
bin	3.49592e-05	353
bin	3.50304e-05	401
bin	3.51016e-05	326
bin	3.51728e-05	358
bin	3.5244e-05	333
bin	3.53152e-05	355
bin	3.53864e-05	371
bin	3.54576e-05	347
bin	3.55288e-05	343
bin	3.56e-05	78537
statistic Torus3d_bub.timer 	"Life Times"
field count 6291456
field mean 3.9268312757688e-05
field stddev 3.4015492227756e-05
field sum 247.05486190923
field sqrsum 0.016980978944222
field min 7.33331989e-07
field max 0.000627369331893
bin	-INF	0
bin	0	10563
bin	8.544e-07	54612
bin	1.7088e-06	93493
bin	2.5632e-06	90632
bin	3.4176e-06	84822
bin	4.272e-06	83897
bin	5.1264e-06	97535
bin	5.9808e-06	85512
bin	6.8352e-06	84388
bin	7.6896e-06	90695
bin	8.544e-06	96345
bin	9.3984e-06	89255
bin	1.02528e-05	94428
bin	1.11072e-05	100637
bin	1.19616e-05	94318
bin	1.2816e-05	78993
bin	1.36704e-05	83118
bin	1.45248e-05	84153
bin	1.53792e-05	93391
bin	1.62336e-05	96804
bin	1.7088e-05	97598
bin	1.79424e-05	108346
bin	1.87968e-05	107009
bin	1.96512e-05	114054
bin	2.05056e-05	119458
bin	2.136e-05	118445
bin	2.22144e-05	117610
bin	2.30688e-05	116569
bin	2.39232e-05	115881
bin	2.47776e-05	117779
bin	2.5632e-05	104475
bin	2.64864e-05	105576
bin	2.73408e-05	104394
bin	2.81952e-05	99286
bin	2.90496e-05	95073
bin	2.9904e-05	96495
bin	3.07584e-05	91033
bin	3.16128e-05	83375
bin	3.24672e-05	76274
bin	3.33216e-05	73553
bin	3.4176e-05	68761
bin	3.50304e-05	62769
bin	3.58848e-05	58501
bin	3.67392e-05	53885
bin	3.75936e-05	49279
bin	3.8448e-05	45057
bin	3.93024e-05	41077
bin	4.01568e-05	38018
bin	4.10112e-05	35194
bin	4.18656e-05	33579
bin	4.272e-05	32031
bin	4.35744e-05	31346
bin	4.44288e-05	30810
bin	4.52832e-05	30724
bin	4.61376e-05	30544
bin	4.6992e-05	30733
bin	4.78464e-05	31496
bin	4.87008e-05	31087
bin	4.95552e-05	31151
bin	5.04096e-05	31714
bin	5.1264e-05	32310
bin	5.21184e-05	32200
bin	5.29728e-05	33237
bin	5.38272e-05	33522
bin	5.46816e-05	34110
bin	5.5536e-05	34475
bin	5.63904e-05	35098
bin	5.72448e-05	35273
bin	5.80992e-05	35641
bin	5.89536e-05	35610
bin	5.9808e-05	35237
bin	6.06624e-05	35959
bin	6.15168e-05	35951
bin	6.23712e-05	35048
bin	6.32256e-05	32931
bin	6.408e-05	31683
bin	6.49344e-05	29970
bin	6.57888e-05	28719
bin	6.66432e-05	27534
bin	6.74976e-05	26560
bin	6.8352e-05	25122
bin	6.92064e-05	24069
bin	7.00608e-05	23050
bin	7.09152e-05	22064
bin	7.17696e-05	21042
bin	7.2624e-05	20357
bin	7.34784e-05	19914
bin	7.43328e-05	19780
bin	7.51872e-05	19824
bin	7.60416e-05	19799
bin	7.6896e-05	19766
bin	7.77504e-05	19839
bin	7.86048e-05	19858
bin	7.94592e-05	20226
bin	8.03136e-05	20487
bin	8.1168e-05	20646
bin	8.20224e-05	20656
bin	8.28768e-05	20858
bin	8.37312e-05	21021
bin	8.45856e-05	21309
bin	8.544e-05	21111
bin	8.62944e-05	21237
bin	8.71488e-05	21219
bin	8.80032e-05	21341
bin	8.88576e-05	21400
bin	8.9712e-05	20825
bin	9.05664e-05	21084
bin	9.14208e-05	20589
bin	9.22752e-05	19832
bin	9.31296e-05	19013
bin	9.3984e-05	17971
bin	9.48384e-05	16708
bin	9.56928e-05	15207
bin	9.65472e-05	14319
bin	9.74016e-05	13045
bin	9.8256e-05	12148
bin	9.91104e-05	11159
bin	9.99648e-05	10239
bin	0.0001008192	9732
bin	0.0001016736	8911
bin	0.000102528	8455
bin	0.0001033824	7893
bin	0.0001042368	7708
bin	0.0001050912	7437
bin	0.0001059456	7346
bin	0.0001068	6970
bin	0.0001076544	6993
bin	0.0001085088	7073
bin	0.0001093632	6961
bin	0.0001102176	6963
bin	0.000111072	6780
bin	0.0001119264	6790
bin	0.0001127808	6963
bin	0.0001136352	6986
bin	0.0001144896	7216
bin	0.000115344	7023
bin	0.0001161984	6872
bin	0.0001170528	7025
bin	0.0001179072	6933
bin	0.0001187616	6828
bin	0.000119616	6602
bin	0.0001204704	6580
bin	0.0001213248	6455
bin	0.0001221792	6029
bin	0.0001230336	5819
bin	0.000123888	5539
bin	0.0001247424	5147
bin	0.0001255968	4615
bin	0.0001264512	4382
bin	0.0001273056	3947
bin	0.00012816	3657
bin	0.0001290144	3360
bin	0.0001298688	2990
bin	0.0001307232	2755
bin	0.0001315776	2526
bin	0.000132432	2333
bin	0.0001332864	2165
bin	0.0001341408	2024
bin	0.0001349952	1983
bin	0.0001358496	1935
bin	0.000136704	1870
bin	0.0001375584	1785
bin	0.0001384128	1808
bin	0.0001392672	1865
bin	0.0001401216	1854
bin	0.000140976	1799
bin	0.0001418304	1828
bin	0.0001426848	1798
bin	0.0001435392	1755
bin	0.0001443936	1779
bin	0.000145248	1725
bin	0.0001461024	1755
bin	0.0001469568	1861
bin	0.0001478112	1785
bin	0.0001486656	1794
bin	0.00014952	1785
bin	0.0001503744	1727
bin	0.0001512288	1788
bin	0.0001520832	1716
bin	0.0001529376	1680
bin	0.000153792	1651
bin	0.0001546464	1631
bin	0.0001555008	1603
bin	0.0001563552	1431
bin	0.0001572096	1363
bin	0.000158064	1295
bin	0.0001589184	1237
bin	0.0001597728	1133
bin	0.0001606272	1047
bin	0.0001614816	993
bin	0.000162336	980
bin	0.0001631904	899
bin	0.0001640448	886
bin	0.0001648992	844
bin	0.0001657536	817
bin	0.000166608	826
bin	0.0001674624	810
bin	0.0001683168	817
bin	0.0001691712	835
bin	0.0001700256	805
bin	0.00017088	762
bin	0.0001717344	793
bin	0.0001725888	778
bin	0.0001734432	805
bin	0.0001742976	766
bin	0.000175152	821
bin	0.0001760064	769
bin	0.0001768608	836
bin	0.0001777152	804
bin	0.0001785696	783
bin	0.000179424	823
bin	0.0001802784	824
bin	0.0001811328	818
bin	0.0001819872	824
bin	0.0001828416	843
bin	0.000183696	830
bin	0.0001845504	748
bin	0.0001854048	742
bin	0.0001862592	708
bin	0.0001871136	725
bin	0.000187968	669
bin	0.0001888224	624
bin	0.0001896768	632
bin	0.0001905312	569
bin	0.0001913856	599
bin	0.00019224	563
bin	0.0001930944	583
bin	0.0001939488	543
bin	0.0001948032	554
bin	0.0001956576	456
bin	0.000196512	487
bin	0.0001973664	500
bin	0.0001982208	477
bin	0.0001990752	499
bin	0.0001999296	480
bin	0.000200784	464
bin	0.0002016384	476
bin	0.0002024928	492
bin	0.0002033472	484
bin	0.0002042016	521
bin	0.000205056	453
bin	0.0002059104	479
bin	0.0002067648	455
bin	0.0002076192	481
bin	0.0002084736	459
bin	0.000209328	504
bin	0.0002101824	440
bin	0.0002110368	488
bin	0.0002118912	456
bin	0.0002127456	462
bin	0.0002136	442
bin	0.0002144544	454
bin	0.0002153088	444
bin	0.0002161632	420
bin	0.0002170176	352
bin	0.000217872	334
bin	0.0002187264	301
bin	0.0002195808	287
bin	0.0002204352	290
bin	0.0002212896	262
bin	0.000222144	258
bin	0.0002229984	194
bin	0.0002238528	209
bin	0.0002247072	196
bin	0.0002255616	190
bin	0.000226416	180
bin	0.0002272704	167
bin	0.0002281248	186
bin	0.0002289792	151
bin	0.0002298336	165
bin	0.000230688	192
bin	0.0002315424	177
bin	0.0002323968	205
bin	0.0002332512	183
bin	0.0002341056	195
bin	0.00023496	186
bin	0.0002358144	189
bin	0.0002366688	159
bin	0.0002375232	184
bin	0.0002383776	148
bin	0.000239232	183
bin	0.0002400864	157
bin	0.0002409408	166
bin	0.0002417952	151
bin	0.0002426496	138
bin	0.000243504	160
bin	0.0002443584	181
bin	0.0002452128	159
bin	0.0002460672	147
bin	0.0002469216	138
bin	0.000247776	151
bin	0.0002486304	116
bin	0.0002494848	125
bin	0.0002503392	115
bin	0.0002511936	103
bin	0.000252048	91
bin	0.0002529024	70
bin	0.0002537568	65
bin	0.0002546112	71
bin	0.0002554656	62
bin	0.00025632	56
bin	0.0002571744	66
bin	0.0002580288	59
bin	0.0002588832	64
bin	0.0002597376	53
bin	0.000260592	53
bin	0.0002614464	46
bin	0.0002623008	39
bin	0.0002631552	39
bin	0.0002640096	51
bin	0.000264864	54
bin	0.0002657184	50
bin	0.0002665728	51
bin	0.0002674272	53
bin	0.0002682816	43
bin	0.000269136	68
bin	0.0002699904	52
bin	0.0002708448	53
bin	0.0002716992	52
bin	0.0002725536	58
bin	0.000273408	39
bin	0.0002742624	47
bin	0.0002751168	47
bin	0.0002759712	46
bin	0.0002768256	44
bin	0.00027768	46
bin	0.0002785344	50
bin	0.0002793888	55
bin	0.0002802432	36
bin	0.0002810976	37
bin	0.000281952	29
bin	0.0002828064	30
bin	0.0002836608	27
bin	0.0002845152	29
bin	0.0002853696	21
bin	0.000286224	25
bin	0.0002870784	24
bin	0.0002879328	34
bin	0.0002887872	22
bin	0.0002896416	27
bin	0.000290496	31
bin	0.0002913504	19
bin	0.0002922048	22
bin	0.0002930592	27
bin	0.0002939136	26
bin	0.000294768	29
bin	0.0002956224	31
bin	0.0002964768	30
bin	0.0002973312	24
bin	0.0002981856	27
bin	0.00029904	32
bin	0.0002998944	23
bin	0.0003007488	29
bin	0.0003016032	24
bin	0.0003024576	17
bin	0.000303312	20
bin	0.0003041664	26
bin	0.0003050208	25
bin	0.0003058752	21
bin	0.0003067296	25
bin	0.000307584	32
bin	0.0003084384	25
bin	0.0003092928	20
bin	0.0003101472	27
bin	0.0003110016	20
bin	0.000311856	16
bin	0.0003127104	19
bin	0.0003135648	23
bin	0.0003144192	19
bin	0.0003152736	20
bin	0.000316128	19
bin	0.0003169824	23
bin	0.0003178368	27
bin	0.0003186912	19
bin	0.0003195456	12
bin	0.0003204	15
bin	0.0003212544	26
bin	0.0003221088	23
bin	0.0003229632	10
bin	0.0003238176	18
bin	0.000324672	20
bin	0.0003255264	19
bin	0.0003263808	16
bin	0.0003272352	13
bin	0.0003280896	13
bin	0.000328944	13
bin	0.0003297984	13
bin	0.0003306528	12
bin	0.0003315072	9
bin	0.0003323616	16
bin	0.000333216	14
bin	0.0003340704	8
bin	0.0003349248	6
bin	0.0003357792	6
bin	0.0003366336	18
bin	0.000337488	15
bin	0.0003383424	11
bin	0.0003391968	11
bin	0.0003400512	6
bin	0.0003409056	10
bin	0.00034176	5
bin	0.0003426144	4
bin	0.0003434688	4
bin	0.0003443232	5
bin	0.0003451776	2
bin	0.000346032	7
bin	0.0003468864	9
bin	0.0003477408	4
bin	0.0003485952	3
bin	0.0003494496	4
bin	0.000350304	4
bin	0.0003511584	6
bin	0.0003520128	5
bin	0.0003528672	7
bin	0.0003537216	6
bin	0.000354576	8
bin	0.0003554304	10
bin	0.0003562848	5
bin	0.0003571392	10
bin	0.0003579936	3
bin	0.000358848	5
bin	0.0003597024	3
bin	0.0003605568	10
bin	0.0003614112	4
bin	0.0003622656	6
bin	0.00036312	2
bin	0.0003639744	2
bin	0.0003648288	2
bin	0.0003656832	4
bin	0.0003665376	3
bin	0.000367392	1
bin	0.0003682464	8
bin	0.0003691008	5
bin	0.0003699552	2
bin	0.0003708096	2
bin	0.000371664	1
bin	0.0003725184	3
bin	0.0003733728	1
bin	0.0003742272	4
bin	0.0003750816	1
bin	0.000375936	7
bin	0.0003767904	1
bin	0.0003776448	5
bin	0.0003784992	2
bin	0.0003793536	0
bin	0.000380208	1
bin	0.0003810624	0
bin	0.0003819168	2
bin	0.0003827712	3
bin	0.0003836256	0
bin	0.00038448	0
bin	0.0003853344	4
bin	0.0003861888	3
bin	0.0003870432	1
bin	0.0003878976	1
bin	0.000388752	0
bin	0.0003896064	2
bin	0.0003904608	1
bin	0.0003913152	1
bin	0.0003921696	2
bin	0.000393024	1
bin	0.0003938784	1
bin	0.0003947328	0
bin	0.0003955872	0
bin	0.0003964416	2
bin	0.000397296	1
bin	0.0003981504	1
bin	0.0003990048	1
bin	0.0003998592	1
bin	0.0004007136	2
bin	0.000401568	1
bin	0.0004024224	2
bin	0.0004032768	1
bin	0.0004041312	0
bin	0.0004049856	0
bin	0.00040584	0
bin	0.0004066944	0
bin	0.0004075488	2
bin	0.0004084032	3
bin	0.0004092576	1
bin	0.000410112	5
bin	0.0004109664	0
bin	0.0004118208	0
bin	0.0004126752	2
bin	0.0004135296	1
bin	0.000414384	2
bin	0.0004152384	0
bin	0.0004160928	0
bin	0.0004169472	0
bin	0.0004178016	0
bin	0.000418656	1
bin	0.0004195104	2
bin	0.0004203648	1
bin	0.0004212192	0
bin	0.0004220736	0
bin	0.000422928	3
bin	0.0004237824	0
bin	0.0004246368	0
bin	0.0004254912	1
bin	0.0004263456	1
bin	0.0004272	63
