version 2
run Butterfly-127-20120709-13:44:18-24170
attr alg 3
attr buf 8
attr configname Butterfly
attr datetime 20120709-13:44:18
attr delta 1.6
attr experiment Butterfly
attr ext false
attr inifile altro.ini
attr iterationvars "$buf=8, $ext=false, $ofedge=1, $delta=1.6, $alg=3"
attr iterationvars2 "$buf=8, $ext=false, $ofedge=1, $delta=1.6, $alg=3, $repetition=0"
attr measurement "$buf=8, $ext=false, $ofedge=1, $delta=1.6, $alg=3"
attr network Torus3d_bub
attr ofedge 1
attr processid 24170
attr repetition 0
attr replication #0
attr resultdir altro-results
attr runnumber 127
attr seedset 127

scalar . 	alg 	3
scalar . 	buf 	8
scalar . 	delta 	1.6
scalar . 	ofedge 	1
scalar Torus3d_bub.timer 	#endTime 	0.000845274998702
scalar Torus3d_bub.timer 	#totalHops 	35240065
scalar Torus3d_bub.timer 	#totalPacks 	6291456
scalar Torus3d_bub.timer 	#totalDerouted 	4203706
scalar Torus3d_bub.timer 	#totalOutFlanked 	3946298
scalar Torus3d_bub.timer 	#totalCQRed 	257408
scalar Torus3d_bub.timer 	#LB 	0.000786432
scalar Torus3d_bub.timer 	#ratio 	0.93038597049202
statistic Torus3d_bub.timer 	"Hop Times"
field count 6291456
field mean 2.9320144891211e-05
field stddev 3.6925990793289e-05
field sum 184.46640149668
field sqrsum 0.013987161681097
field min 4.4688888e-07
field max 0.000494514333309
bin	-INF	0
bin	0	0
bin	7.12e-08	0
bin	1.424e-07	0
bin	2.136e-07	0
bin	2.848e-07	0
bin	3.56e-07	0
bin	4.272e-07	33
bin	4.984e-07	6547
bin	5.696e-07	2550
bin	6.408e-07	2748
bin	7.12e-07	6588
bin	7.832e-07	2105
bin	8.544e-07	3442
bin	9.256e-07	6347
bin	9.968e-07	9213
bin	1.068e-06	5277
bin	1.1392e-06	10112
bin	1.2104e-06	5955
bin	1.2816e-06	12097
bin	1.3528e-06	6452
bin	1.424e-06	7314
bin	1.4952e-06	14907
bin	1.5664e-06	6545
bin	1.6376e-06	8513
bin	1.7088e-06	8819
bin	1.78e-06	17645
bin	1.8512e-06	12882
bin	1.9224e-06	15423
bin	1.9936e-06	11135
bin	2.0648e-06	20453
bin	2.136e-06	12185
bin	2.2072e-06	15743
bin	2.2784e-06	23783
bin	2.3496e-06	16936
bin	2.4208e-06	19788
bin	2.492e-06	16750
bin	2.5632e-06	21519
bin	2.6344e-06	18927
bin	2.7056e-06	16406
bin	2.7768e-06	17622
bin	2.848e-06	18031
bin	2.9192e-06	15687
bin	2.9904e-06	13987
bin	3.0616e-06	22896
bin	3.1328e-06	16544
bin	3.204e-06	18704
bin	3.2752e-06	15924
bin	3.3464e-06	17214
bin	3.4176e-06	18793
bin	3.4888e-06	13034
bin	3.56e-06	14943
bin	3.6312e-06	18787
bin	3.7024e-06	16563
bin	3.7736e-06	11934
bin	3.8448e-06	20669
bin	3.916e-06	11397
bin	3.9872e-06	13938
bin	4.0584e-06	13902
bin	4.1296e-06	17416
bin	4.2008e-06	17270
bin	4.272e-06	13551
bin	4.3432e-06	11746
bin	4.4144e-06	15555
bin	4.4856e-06	11572
bin	4.5568e-06	11507
bin	4.628e-06	16131
bin	4.6992e-06	11418
bin	4.7704e-06	11764
bin	4.8416e-06	11976
bin	4.9128e-06	15852
bin	4.984e-06	11728
bin	5.0552e-06	11872
bin	5.1264e-06	12052
bin	5.1976e-06	15752
bin	5.2688e-06	13925
bin	5.34e-06	11635
bin	5.4112e-06	16470
bin	5.4824e-06	11563
bin	5.5536e-06	12988
bin	5.6248e-06	12063
bin	5.696e-06	15826
bin	5.7672e-06	11663
bin	5.8384e-06	12890
bin	5.9096e-06	11738
bin	5.9808e-06	15592
bin	6.052e-06	11642
bin	6.1232e-06	12652
bin	6.1944e-06	16052
bin	6.2656e-06	11506
bin	6.3368e-06	12579
bin	6.408e-06	11743
bin	6.4792e-06	15407
bin	6.5504e-06	11565
bin	6.6216e-06	12169
bin	6.6928e-06	12545
bin	6.764e-06	16293
bin	6.8352e-06	11427
bin	6.9064e-06	12047
bin	6.9776e-06	16689
bin	7.0488e-06	11064
bin	7.12e-06	12344
bin	7.1912e-06	11546
bin	7.2624e-06	15160
bin	7.3336e-06	11692
bin	7.4048e-06	11774
bin	7.476e-06	11837
bin	7.5472e-06	15537
bin	7.6184e-06	11237
bin	7.6896e-06	11478
bin	7.7608e-06	15818
bin	7.832e-06	11221
bin	7.9032e-06	11016
bin	7.9744e-06	11386
bin	8.0456e-06	10943
bin	8.1168e-06	10853
bin	8.188e-06	11121
bin	8.2592e-06	11318
bin	8.3304e-06	15070
bin	8.4016e-06	11167
bin	8.4728e-06	10948
bin	8.544e-06	15438
bin	8.6152e-06	10983
bin	8.6864e-06	13291
bin	8.7576e-06	11498
bin	8.8288e-06	15236
bin	8.9e-06	11096
bin	8.9712e-06	11114
bin	9.0424e-06	13416
bin	9.1136e-06	15089
bin	9.1848e-06	12118
bin	9.256e-06	11222
bin	9.3272e-06	12217
bin	9.3984e-06	10933
bin	9.4696e-06	13185
bin	9.5408e-06	11426
bin	9.612e-06	13253
bin	9.6832e-06	11403
bin	9.7544e-06	11104
bin	9.8256e-06	11513
bin	9.8968e-06	15372
bin	9.968e-06	11294
bin	1.00392e-05	11254
bin	1.01104e-05	13474
bin	1.01816e-05	11260
bin	1.02528e-05	11370
bin	1.0324e-05	11586
bin	1.03952e-05	11147
bin	1.04664e-05	11304
bin	1.05376e-05	11358
bin	1.06088e-05	11757
bin	1.068e-05	13250
bin	1.07512e-05	11770
bin	1.08224e-05	11329
bin	1.08936e-05	15667
bin	1.09648e-05	11297
bin	1.1036e-05	11247
bin	1.11072e-05	11736
bin	1.11784e-05	13351
bin	1.12496e-05	11504
bin	1.13208e-05	11309
bin	1.1392e-05	11734
bin	1.14632e-05	15533
bin	1.15344e-05	11754
bin	1.16056e-05	11431
bin	1.16768e-05	13770
bin	1.1748e-05	11310
bin	1.18192e-05	11633
bin	1.18904e-05	11966
bin	1.19616e-05	15462
bin	1.20328e-05	11624
bin	1.2104e-05	11567
bin	1.21752e-05	11711
bin	1.22464e-05	13793
bin	1.23176e-05	11819
bin	1.23888e-05	11635
bin	1.246e-05	16023
bin	1.25312e-05	11605
bin	1.26024e-05	11779
bin	1.26736e-05	11758
bin	1.27448e-05	13744
bin	1.2816e-05	11594
bin	1.28872e-05	11612
bin	1.29584e-05	11578
bin	1.30296e-05	11448
bin	1.31008e-05	11743
bin	1.3172e-05	11557
bin	1.32432e-05	11559
bin	1.33144e-05	11615
bin	1.33856e-05	11445
bin	1.34568e-05	11637
bin	1.3528e-05	11554
bin	1.35992e-05	11508
bin	1.36704e-05	11518
bin	1.37416e-05	11541
bin	1.38128e-05	11628
bin	1.3884e-05	11350
bin	1.39552e-05	11569
bin	1.40264e-05	11277
bin	1.40976e-05	11297
bin	1.41688e-05	11453
bin	1.424e-05	11459
bin	1.43112e-05	11231
bin	1.43824e-05	11409
bin	1.44536e-05	11158
bin	1.45248e-05	11343
bin	1.4596e-05	11147
bin	1.46672e-05	11415
bin	1.47384e-05	11289
bin	1.48096e-05	11241
bin	1.48808e-05	11185
bin	1.4952e-05	11293
bin	1.50232e-05	11216
bin	1.50944e-05	11144
bin	1.51656e-05	11428
bin	1.52368e-05	11365
bin	1.5308e-05	11156
bin	1.53792e-05	11149
bin	1.54504e-05	11233
bin	1.55216e-05	11139
bin	1.55928e-05	11019
bin	1.5664e-05	11000
bin	1.57352e-05	11308
bin	1.58064e-05	11215
bin	1.58776e-05	11079
bin	1.59488e-05	11074
bin	1.602e-05	11204
bin	1.60912e-05	10944
bin	1.61624e-05	10941
bin	1.62336e-05	11013
bin	1.63048e-05	10990
bin	1.6376e-05	11046
bin	1.64472e-05	10929
bin	1.65184e-05	10996
bin	1.65896e-05	11082
bin	1.66608e-05	10965
bin	1.6732e-05	11000
bin	1.68032e-05	10928
bin	1.68744e-05	11127
bin	1.69456e-05	10908
bin	1.70168e-05	10918
bin	1.7088e-05	10725
bin	1.71592e-05	10742
bin	1.72304e-05	10607
bin	1.73016e-05	10926
bin	1.73728e-05	10917
bin	1.7444e-05	10883
bin	1.75152e-05	10821
bin	1.75864e-05	10746
bin	1.76576e-05	10711
bin	1.77288e-05	10539
bin	1.78e-05	10919
bin	1.78712e-05	10653
bin	1.79424e-05	10684
bin	1.80136e-05	10605
bin	1.80848e-05	10606
bin	1.8156e-05	10715
bin	1.82272e-05	10604
bin	1.82984e-05	10452
bin	1.83696e-05	10585
bin	1.84408e-05	10653
bin	1.8512e-05	10476
bin	1.85832e-05	10619
bin	1.86544e-05	10355
bin	1.87256e-05	10661
bin	1.87968e-05	10437
bin	1.8868e-05	10430
bin	1.89392e-05	10292
bin	1.90104e-05	10358
bin	1.90816e-05	10039
bin	1.91528e-05	10311
bin	1.9224e-05	10430
bin	1.92952e-05	9949
bin	1.93664e-05	10223
bin	1.94376e-05	9913
bin	1.95088e-05	10108
bin	1.958e-05	9971
bin	1.96512e-05	9981
bin	1.97224e-05	9828
bin	1.97936e-05	10146
bin	1.98648e-05	9646
bin	1.9936e-05	10078
bin	2.00072e-05	9812
bin	2.00784e-05	9786
bin	2.01496e-05	10003
bin	2.02208e-05	9913
bin	2.0292e-05	9778
bin	2.03632e-05	9844
bin	2.04344e-05	9717
bin	2.05056e-05	9870
bin	2.05768e-05	9917
bin	2.0648e-05	9653
bin	2.07192e-05	9949
bin	2.07904e-05	9730
bin	2.08616e-05	9646
bin	2.09328e-05	9773
bin	2.1004e-05	9556
bin	2.10752e-05	9136
bin	2.11464e-05	9613
bin	2.12176e-05	9425
bin	2.12888e-05	9366
bin	2.136e-05	9414
bin	2.14312e-05	9383
bin	2.15024e-05	9354
bin	2.15736e-05	9108
bin	2.16448e-05	9410
bin	2.1716e-05	9115
bin	2.17872e-05	9247
bin	2.18584e-05	9074
bin	2.19296e-05	9254
bin	2.20008e-05	9009
bin	2.2072e-05	9196
bin	2.21432e-05	9103
bin	2.22144e-05	9101
bin	2.22856e-05	9195
bin	2.23568e-05	8987
bin	2.2428e-05	9033
bin	2.24992e-05	9009
bin	2.25704e-05	9054
bin	2.26416e-05	8888
bin	2.27128e-05	9104
bin	2.2784e-05	8848
bin	2.28552e-05	8853
bin	2.29264e-05	8847
bin	2.29976e-05	8724
bin	2.30688e-05	8768
bin	2.314e-05	8927
bin	2.32112e-05	8538
bin	2.32824e-05	8798
bin	2.33536e-05	8622
bin	2.34248e-05	8756
bin	2.3496e-05	8607
bin	2.35672e-05	8437
bin	2.36384e-05	8467
bin	2.37096e-05	8392
bin	2.37808e-05	8397
bin	2.3852e-05	8250
bin	2.39232e-05	8227
bin	2.39944e-05	8202
bin	2.40656e-05	8403
bin	2.41368e-05	8328
bin	2.4208e-05	8011
bin	2.42792e-05	8288
bin	2.43504e-05	7941
bin	2.44216e-05	8214
bin	2.44928e-05	7943
bin	2.4564e-05	7922
bin	2.46352e-05	8032
bin	2.47064e-05	7739
bin	2.47776e-05	7738
bin	2.48488e-05	7988
bin	2.492e-05	7852
bin	2.49912e-05	7728
bin	2.50624e-05	7971
bin	2.51336e-05	7638
bin	2.52048e-05	7723
bin	2.5276e-05	7827
bin	2.53472e-05	7626
bin	2.54184e-05	7556
bin	2.54896e-05	7601
bin	2.55608e-05	7525
bin	2.5632e-05	7455
bin	2.57032e-05	7497
bin	2.57744e-05	7445
bin	2.58456e-05	7464
bin	2.59168e-05	7105
bin	2.5988e-05	7314
bin	2.60592e-05	7304
bin	2.61304e-05	7074
bin	2.62016e-05	7237
bin	2.62728e-05	7242
bin	2.6344e-05	7024
bin	2.64152e-05	7266
bin	2.64864e-05	7272
bin	2.65576e-05	7096
bin	2.66288e-05	7174
bin	2.67e-05	7020
bin	2.67712e-05	7123
bin	2.68424e-05	7054
bin	2.69136e-05	7031
bin	2.69848e-05	7036
bin	2.7056e-05	6803
bin	2.71272e-05	6856
bin	2.71984e-05	6962
bin	2.72696e-05	7040
bin	2.73408e-05	7055
bin	2.7412e-05	7003
bin	2.74832e-05	6809
bin	2.75544e-05	6931
bin	2.76256e-05	6820
bin	2.76968e-05	6725
bin	2.7768e-05	6827
bin	2.78392e-05	6548
bin	2.79104e-05	6719
bin	2.79816e-05	6702
bin	2.80528e-05	6651
bin	2.8124e-05	6492
bin	2.81952e-05	6757
bin	2.82664e-05	6342
bin	2.83376e-05	6495
bin	2.84088e-05	6584
bin	2.848e-05	6463
bin	2.85512e-05	6429
bin	2.86224e-05	6359
bin	2.86936e-05	6377
bin	2.87648e-05	6362
bin	2.8836e-05	6338
bin	2.89072e-05	6242
bin	2.89784e-05	6272
bin	2.90496e-05	6160
bin	2.91208e-05	6205
bin	2.9192e-05	6175
bin	2.92632e-05	6132
bin	2.93344e-05	6162
bin	2.94056e-05	6010
bin	2.94768e-05	6101
bin	2.9548e-05	6104
bin	2.96192e-05	6058
bin	2.96904e-05	6014
bin	2.97616e-05	6102
bin	2.98328e-05	5862
bin	2.9904e-05	6008
bin	2.99752e-05	6002
bin	3.00464e-05	5985
bin	3.01176e-05	6011
bin	3.01888e-05	5906
bin	3.026e-05	5788
bin	3.03312e-05	5817
bin	3.04024e-05	5844
bin	3.04736e-05	5883
bin	3.05448e-05	5849
bin	3.0616e-05	5681
bin	3.06872e-05	5684
bin	3.07584e-05	5648
bin	3.08296e-05	5728
bin	3.09008e-05	5606
bin	3.0972e-05	5563
bin	3.10432e-05	5437
bin	3.11144e-05	5617
bin	3.11856e-05	5596
bin	3.12568e-05	5407
bin	3.1328e-05	5528
bin	3.13992e-05	5426
bin	3.14704e-05	5449
bin	3.15416e-05	5257
bin	3.16128e-05	5366
bin	3.1684e-05	5449
bin	3.17552e-05	5327
bin	3.18264e-05	5187
bin	3.18976e-05	5358
bin	3.19688e-05	5289
bin	3.204e-05	5230
bin	3.21112e-05	5403
bin	3.21824e-05	5204
bin	3.22536e-05	5323
bin	3.23248e-05	5159
bin	3.2396e-05	5282
bin	3.24672e-05	5347
bin	3.25384e-05	5102
bin	3.26096e-05	5098
bin	3.26808e-05	5253
bin	3.2752e-05	5148
bin	3.28232e-05	5033
bin	3.28944e-05	5193
bin	3.29656e-05	4936
bin	3.30368e-05	5112
bin	3.3108e-05	4885
bin	3.31792e-05	5060
bin	3.32504e-05	4899
bin	3.33216e-05	4852
bin	3.33928e-05	4834
bin	3.3464e-05	4940
bin	3.35352e-05	4803
bin	3.36064e-05	4745
bin	3.36776e-05	4936
bin	3.37488e-05	4652
bin	3.382e-05	4727
bin	3.38912e-05	4692
bin	3.39624e-05	4744
bin	3.40336e-05	4713
bin	3.41048e-05	4554
bin	3.4176e-05	4561
bin	3.42472e-05	4659
bin	3.43184e-05	4560
bin	3.43896e-05	4396
bin	3.44608e-05	4517
bin	3.4532e-05	4397
bin	3.46032e-05	4584
bin	3.46744e-05	4423
bin	3.47456e-05	4534
bin	3.48168e-05	4447
bin	3.4888e-05	4471
bin	3.49592e-05	4323
bin	3.50304e-05	4514
bin	3.51016e-05	4431
bin	3.51728e-05	4310
bin	3.5244e-05	4389
bin	3.53152e-05	4338
bin	3.53864e-05	4265
bin	3.54576e-05	4309
bin	3.55288e-05	4357
bin	3.56e-05	1461652
statistic Torus3d_bub.timer 	"Life Times"
field count 6291456
field mean 0.00011588708934714
field stddev 7.857622624198e-05
field sum 729.09852359562
field sqrsum 0.12333795399015
field min 5.2e-07
field max 0.000620387332482
bin	-INF	0
bin	0	8981
bin	8.544e-07	22518
bin	1.7088e-06	28892
bin	2.5632e-06	29445
bin	3.4176e-06	26642
bin	4.272e-06	28790
bin	5.1264e-06	36494
bin	5.9808e-06	35977
bin	6.8352e-06	29604
bin	7.6896e-06	32809
bin	8.544e-06	39533
bin	9.3984e-06	38017
bin	1.02528e-05	35655
bin	1.11072e-05	44965
bin	1.19616e-05	44941
bin	1.2816e-05	25903
bin	1.36704e-05	30902
bin	1.45248e-05	29131
bin	1.53792e-05	33770
bin	1.62336e-05	31256
bin	1.7088e-05	30215
bin	1.79424e-05	28965
bin	1.87968e-05	27469
bin	1.96512e-05	26906
bin	2.05056e-05	27668
bin	2.136e-05	24665
bin	2.22144e-05	25445
bin	2.30688e-05	24889
bin	2.39232e-05	24544
bin	2.47776e-05	23720
bin	2.5632e-05	23056
bin	2.64864e-05	25567
bin	2.73408e-05	24720
bin	2.81952e-05	24036
bin	2.90496e-05	24728
bin	2.9904e-05	24401
bin	3.07584e-05	23953
bin	3.16128e-05	23510
bin	3.24672e-05	23429
bin	3.33216e-05	23340
bin	3.4176e-05	23405
bin	3.50304e-05	23413
bin	3.58848e-05	23257
bin	3.67392e-05	24225
bin	3.75936e-05	24151
bin	3.8448e-05	24592
bin	3.93024e-05	24728
bin	4.01568e-05	24856
bin	4.10112e-05	24735
bin	4.18656e-05	24839
bin	4.272e-05	24555
bin	4.35744e-05	24325
bin	4.44288e-05	24664
bin	4.52832e-05	24450
bin	4.61376e-05	24951
bin	4.6992e-05	24773
bin	4.78464e-05	24683
bin	4.87008e-05	24741
bin	4.95552e-05	25102
bin	5.04096e-05	24108
bin	5.1264e-05	23593
bin	5.21184e-05	24003
bin	5.29728e-05	23786
bin	5.38272e-05	23482
bin	5.46816e-05	23515
bin	5.5536e-05	23354
bin	5.63904e-05	22828
bin	5.72448e-05	22854
bin	5.80992e-05	22959
bin	5.89536e-05	23214
bin	5.9808e-05	22873
bin	6.06624e-05	22602
bin	6.15168e-05	23256
bin	6.23712e-05	22899
bin	6.32256e-05	22957
bin	6.408e-05	23267
bin	6.49344e-05	22792
bin	6.57888e-05	22928
bin	6.66432e-05	22901
bin	6.74976e-05	23212
bin	6.8352e-05	22795
bin	6.92064e-05	23025
bin	7.00608e-05	22823
bin	7.09152e-05	22812
bin	7.17696e-05	23277
bin	7.2624e-05	23023
bin	7.34784e-05	23347
bin	7.43328e-05	23083
bin	7.51872e-05	23370
bin	7.60416e-05	23238
bin	7.6896e-05	23484
bin	7.77504e-05	23219
bin	7.86048e-05	22940
bin	7.94592e-05	22814
bin	8.03136e-05	22972
bin	8.1168e-05	22969
bin	8.20224e-05	22677
bin	8.28768e-05	22837
bin	8.37312e-05	22612
bin	8.45856e-05	22434
bin	8.544e-05	22310
bin	8.62944e-05	22446
bin	8.71488e-05	22444
bin	8.80032e-05	22400
bin	8.88576e-05	22606
bin	8.9712e-05	22811
bin	9.05664e-05	22670
bin	9.14208e-05	22680
bin	9.22752e-05	22671
bin	9.31296e-05	22402
bin	9.3984e-05	22412
bin	9.48384e-05	22591
bin	9.56928e-05	22727
bin	9.65472e-05	22703
bin	9.74016e-05	22651
bin	9.8256e-05	22789
bin	9.91104e-05	22783
bin	9.99648e-05	22452
bin	0.0001008192	22938
bin	0.0001016736	22926
bin	0.000102528	22716
bin	0.0001033824	22592
bin	0.0001042368	22675
bin	0.0001050912	22595
bin	0.0001059456	22743
bin	0.0001068	22756
bin	0.0001076544	22794
bin	0.0001085088	22746
bin	0.0001093632	22975
bin	0.0001102176	22710
bin	0.000111072	22747
bin	0.0001119264	22584
bin	0.0001127808	22468
bin	0.0001136352	22259
bin	0.0001144896	22434
bin	0.000115344	22365
bin	0.0001161984	22270
bin	0.0001170528	22255
bin	0.0001179072	22431
bin	0.0001187616	22440
bin	0.000119616	22274
bin	0.0001204704	22566
bin	0.0001213248	22445
bin	0.0001221792	22179
bin	0.0001230336	22572
bin	0.000123888	22509
bin	0.0001247424	22449
bin	0.0001255968	22524
bin	0.0001264512	22222
bin	0.0001273056	22373
bin	0.00012816	22612
bin	0.0001290144	22167
bin	0.0001298688	22060
bin	0.0001307232	22107
bin	0.0001315776	22107
bin	0.000132432	22053
bin	0.0001332864	22135
bin	0.0001341408	21891
bin	0.0001349952	21821
bin	0.0001358496	22008
bin	0.000136704	21701
bin	0.0001375584	21859
bin	0.0001384128	21895
bin	0.0001392672	21922
bin	0.0001401216	21520
bin	0.000140976	21675
bin	0.0001418304	21602
bin	0.0001426848	21568
bin	0.0001435392	21114
bin	0.0001443936	20949
bin	0.000145248	21265
bin	0.0001461024	20987
bin	0.0001469568	21102
bin	0.0001478112	20961
bin	0.0001486656	21056
bin	0.00014952	20885
bin	0.0001503744	20909
bin	0.0001512288	20742
bin	0.0001520832	20783
bin	0.0001529376	20627
bin	0.000153792	20649
bin	0.0001546464	20689
bin	0.0001555008	20395
bin	0.0001563552	20423
bin	0.0001572096	20175
bin	0.000158064	20317
bin	0.0001589184	20087
bin	0.0001597728	19892
bin	0.0001606272	19889
bin	0.0001614816	19949
bin	0.000162336	19796
bin	0.0001631904	19823
bin	0.0001640448	19609
bin	0.0001648992	19305
bin	0.0001657536	19361
bin	0.000166608	19251
bin	0.0001674624	19314
bin	0.0001683168	19096
bin	0.0001691712	19135
bin	0.0001700256	18951
bin	0.00017088	18894
bin	0.0001717344	18731
bin	0.0001725888	18499
bin	0.0001734432	18624
bin	0.0001742976	18564
bin	0.000175152	18546
bin	0.0001760064	18475
bin	0.0001768608	18395
bin	0.0001777152	17887
bin	0.0001785696	17827
bin	0.000179424	17876
bin	0.0001802784	17767
bin	0.0001811328	17792
bin	0.0001819872	17550
bin	0.0001828416	17491
bin	0.000183696	17547
bin	0.0001845504	17260
bin	0.0001854048	17024
bin	0.0001862592	16808
bin	0.0001871136	16674
bin	0.000187968	16455
bin	0.0001888224	16045
bin	0.0001896768	15923
bin	0.0001905312	15977
bin	0.0001913856	16028
bin	0.00019224	15863
bin	0.0001930944	15732
bin	0.0001939488	15408
bin	0.0001948032	15342
bin	0.0001956576	15264
bin	0.000196512	15067
bin	0.0001973664	14808
bin	0.0001982208	14822
bin	0.0001990752	14550
bin	0.0001999296	14436
bin	0.000200784	14089
bin	0.0002016384	14201
bin	0.0002024928	13923
bin	0.0002033472	13867
bin	0.0002042016	13637
bin	0.000205056	13427
bin	0.0002059104	13229
bin	0.0002067648	13315
bin	0.0002076192	12999
bin	0.0002084736	12880
bin	0.000209328	12654
bin	0.0002101824	12570
bin	0.0002110368	12652
bin	0.0002118912	12528
bin	0.0002127456	12297
bin	0.0002136	12125
bin	0.0002144544	11766
bin	0.0002153088	11913
bin	0.0002161632	11832
bin	0.0002170176	11635
bin	0.000217872	11507
bin	0.0002187264	11520
bin	0.0002195808	11428
bin	0.0002204352	11307
bin	0.0002212896	11084
bin	0.000222144	10951
bin	0.0002229984	11051
bin	0.0002238528	10796
bin	0.0002247072	10771
bin	0.0002255616	10836
bin	0.000226416	10604
bin	0.0002272704	10615
bin	0.0002281248	10364
bin	0.0002289792	10135
bin	0.0002298336	10193
bin	0.000230688	9922
bin	0.0002315424	9742
bin	0.0002323968	9609
bin	0.0002332512	9489
bin	0.0002341056	9431
bin	0.00023496	9306
bin	0.0002358144	9185
bin	0.0002366688	9126
bin	0.0002375232	9030
bin	0.0002383776	8853
bin	0.000239232	8713
bin	0.0002400864	8521
bin	0.0002409408	8454
bin	0.0002417952	8343
bin	0.0002426496	8340
bin	0.000243504	8092
bin	0.0002443584	8028
bin	0.0002452128	7820
bin	0.0002460672	7635
bin	0.0002469216	7615
bin	0.000247776	7490
bin	0.0002486304	7302
bin	0.0002494848	7197
bin	0.0002503392	7151
bin	0.0002511936	7165
bin	0.000252048	6761
bin	0.0002529024	6838
bin	0.0002537568	6757
bin	0.0002546112	6615
bin	0.0002554656	6631
bin	0.00025632	6521
bin	0.0002571744	6358
bin	0.0002580288	6275
bin	0.0002588832	6192
bin	0.0002597376	6115
bin	0.000260592	6002
bin	0.0002614464	5949
bin	0.0002623008	5885
bin	0.0002631552	5817
bin	0.0002640096	5729
bin	0.000264864	5606
bin	0.0002657184	5538
bin	0.0002665728	5415
bin	0.0002674272	5265
bin	0.0002682816	5137
bin	0.000269136	5196
bin	0.0002699904	5087
bin	0.0002708448	4962
bin	0.0002716992	4876
bin	0.0002725536	4736
bin	0.000273408	4783
bin	0.0002742624	4539
bin	0.0002751168	4427
bin	0.0002759712	4366
bin	0.0002768256	4353
bin	0.00027768	4265
bin	0.0002785344	4192
bin	0.0002793888	3975
bin	0.0002802432	4025
bin	0.0002810976	3878
bin	0.000281952	3780
bin	0.0002828064	3731
bin	0.0002836608	3503
bin	0.0002845152	3555
bin	0.0002853696	3383
bin	0.000286224	3326
bin	0.0002870784	3211
bin	0.0002879328	3250
bin	0.0002887872	3183
bin	0.0002896416	3041
bin	0.000290496	2978
bin	0.0002913504	3014
bin	0.0002922048	3019
bin	0.0002930592	2763
bin	0.0002939136	2758
bin	0.000294768	2697
bin	0.0002956224	2696
bin	0.0002964768	2596
bin	0.0002973312	2566
bin	0.0002981856	2476
bin	0.00029904	2284
bin	0.0002998944	2274
bin	0.0003007488	2157
bin	0.0003016032	2129
bin	0.0003024576	2123
bin	0.000303312	2120
bin	0.0003041664	2063
bin	0.0003050208	1962
bin	0.0003058752	1957
bin	0.0003067296	1955
bin	0.000307584	1885
bin	0.0003084384	1826
bin	0.0003092928	1766
bin	0.0003101472	1732
bin	0.0003110016	1633
bin	0.000311856	1663
bin	0.0003127104	1640
bin	0.0003135648	1620
bin	0.0003144192	1562
bin	0.0003152736	1538
bin	0.000316128	1490
bin	0.0003169824	1468
bin	0.0003178368	1456
bin	0.0003186912	1375
bin	0.0003195456	1402
bin	0.0003204	1330
bin	0.0003212544	1273
bin	0.0003221088	1181
bin	0.0003229632	1146
bin	0.0003238176	1124
bin	0.000324672	1111
bin	0.0003255264	1051
bin	0.0003263808	1059
bin	0.0003272352	1032
bin	0.0003280896	981
bin	0.000328944	1017
bin	0.0003297984	992
bin	0.0003306528	1012
bin	0.0003315072	978
bin	0.0003323616	980
bin	0.000333216	923
bin	0.0003340704	917
bin	0.0003349248	942
bin	0.0003357792	911
bin	0.0003366336	863
bin	0.000337488	852
bin	0.0003383424	805
bin	0.0003391968	821
bin	0.0003400512	782
bin	0.0003409056	741
bin	0.00034176	733
bin	0.0003426144	756
bin	0.0003434688	731
bin	0.0003443232	692
bin	0.0003451776	671
bin	0.000346032	623
bin	0.0003468864	628
bin	0.0003477408	563
bin	0.0003485952	539
bin	0.0003494496	511
bin	0.000350304	528
bin	0.0003511584	533
bin	0.0003520128	504
bin	0.0003528672	495
bin	0.0003537216	467
bin	0.000354576	453
bin	0.0003554304	456
bin	0.0003562848	422
bin	0.0003571392	425
bin	0.0003579936	436
bin	0.000358848	441
bin	0.0003597024	399
bin	0.0003605568	386
bin	0.0003614112	403
bin	0.0003622656	416
bin	0.00036312	402
bin	0.0003639744	387
bin	0.0003648288	377
bin	0.0003656832	359
bin	0.0003665376	345
bin	0.000367392	354
bin	0.0003682464	345
bin	0.0003691008	324
bin	0.0003699552	307
bin	0.0003708096	293
bin	0.000371664	266
bin	0.0003725184	286
bin	0.0003733728	245
bin	0.0003742272	259
bin	0.0003750816	253
bin	0.000375936	252
bin	0.0003767904	245
bin	0.0003776448	230
bin	0.0003784992	224
bin	0.0003793536	204
bin	0.000380208	213
bin	0.0003810624	214
bin	0.0003819168	204
bin	0.0003827712	181
bin	0.0003836256	168
bin	0.00038448	185
bin	0.0003853344	201
bin	0.0003861888	198
bin	0.0003870432	186
bin	0.0003878976	177
bin	0.000388752	170
bin	0.0003896064	168
bin	0.0003904608	165
bin	0.0003913152	171
bin	0.0003921696	181
bin	0.000393024	173
bin	0.0003938784	140
bin	0.0003947328	167
bin	0.0003955872	143
bin	0.0003964416	138
bin	0.000397296	138
bin	0.0003981504	140
bin	0.0003990048	147
bin	0.0003998592	139
bin	0.0004007136	148
bin	0.000401568	145
bin	0.0004024224	155
bin	0.0004032768	142
bin	0.0004041312	128
bin	0.0004049856	136
bin	0.00040584	129
bin	0.0004066944	145
bin	0.0004075488	123
bin	0.0004084032	128
bin	0.0004092576	124
bin	0.000410112	101
bin	0.0004109664	119
bin	0.0004118208	115
bin	0.0004126752	97
bin	0.0004135296	80
bin	0.000414384	80
bin	0.0004152384	90
bin	0.0004160928	104
bin	0.0004169472	92
bin	0.0004178016	77
bin	0.000418656	67
bin	0.0004195104	70
bin	0.0004203648	59
bin	0.0004212192	74
bin	0.0004220736	72
bin	0.000422928	56
bin	0.0004237824	40
bin	0.0004246368	55
bin	0.0004254912	46
bin	0.0004263456	51
bin	0.0004272	1127
