version 2
run Butterfly-77-20120709-12:07:48-22828
attr alg 1
attr buf 8
attr configname Butterfly
attr datetime 20120709-12:07:48
attr delta 1.6
attr experiment Butterfly
attr ext true
attr inifile altro.ini
attr iterationvars "$buf=8, $ext=true, $ofedge=2, $delta=1.6, $alg=1"
attr iterationvars2 "$buf=8, $ext=true, $ofedge=2, $delta=1.6, $alg=1, $repetition=0"
attr measurement "$buf=8, $ext=true, $ofedge=2, $delta=1.6, $alg=1"
attr network Torus3d_bub
attr ofedge 2
attr processid 22828
attr repetition 0
attr replication #0
attr resultdir altro-results
attr runnumber 77
attr seedset 77

scalar . 	alg 	1
scalar . 	buf 	8
scalar . 	delta 	1.6
scalar . 	ofedge 	2
scalar Torus3d_bub.timer 	#endTime 	0.001064453665043
scalar Torus3d_bub.timer 	#totalHops 	46875350
scalar Torus3d_bub.timer 	#totalPacks 	6291456
scalar Torus3d_bub.timer 	#totalDerouted 	3910268
scalar Torus3d_bub.timer 	#totalOutFlanked 	3910268
scalar Torus3d_bub.timer 	#totalCQRed 	0
scalar Torus3d_bub.timer 	#LB 	0.000786432
scalar Torus3d_bub.timer 	#ratio 	0.73881280681976
statistic Torus3d_bub.timer 	"Hop Times"
field count 6291456
field mean 4.6277184397983e-05
field stddev 6.6512813142977e-05
field sum 291.15086944379
field sqrsum 0.041306751950099
field min 4.5308325e-07
field max 0.000682937998769
bin	-INF	0
bin	0	0
bin	7.12e-08	0
bin	1.424e-07	0
bin	2.136e-07	0
bin	2.848e-07	0
bin	3.56e-07	0
bin	4.272e-07	6
bin	4.984e-07	2092
bin	5.696e-07	3159
bin	6.408e-07	2158
bin	7.12e-07	8493
bin	7.832e-07	3323
bin	8.544e-07	4440
bin	9.256e-07	10854
bin	9.968e-07	2762
bin	1.068e-06	5107
bin	1.1392e-06	8249
bin	1.2104e-06	13692
bin	1.2816e-06	4646
bin	1.3528e-06	12417
bin	1.424e-06	8932
bin	1.4952e-06	15989
bin	1.5664e-06	8891
bin	1.6376e-06	14185
bin	1.7088e-06	13232
bin	1.78e-06	15418
bin	1.8512e-06	10151
bin	1.9224e-06	15943
bin	1.9936e-06	21724
bin	2.0648e-06	16669
bin	2.136e-06	13631
bin	2.2072e-06	8668
bin	2.2784e-06	18245
bin	2.3496e-06	10113
bin	2.4208e-06	13018
bin	2.492e-06	17187
bin	2.5632e-06	20725
bin	2.6344e-06	11295
bin	2.7056e-06	14424
bin	2.7768e-06	15181
bin	2.848e-06	12748
bin	2.9192e-06	10201
bin	2.9904e-06	11624
bin	3.0616e-06	16655
bin	3.1328e-06	7868
bin	3.204e-06	8158
bin	3.2752e-06	11085
bin	3.3464e-06	6910
bin	3.4176e-06	7669
bin	3.4888e-06	7290
bin	3.56e-06	12248
bin	3.6312e-06	6993
bin	3.7024e-06	7033
bin	3.7736e-06	7296
bin	3.8448e-06	13559
bin	3.916e-06	8343
bin	3.9872e-06	8444
bin	4.0584e-06	12668
bin	4.1296e-06	7428
bin	4.2008e-06	8218
bin	4.272e-06	7542
bin	4.3432e-06	11596
bin	4.4144e-06	8472
bin	4.4856e-06	7483
bin	4.5568e-06	7343
bin	4.628e-06	11814
bin	4.6992e-06	7220
bin	4.7704e-06	9455
bin	4.8416e-06	13697
bin	4.9128e-06	7442
bin	4.984e-06	7299
bin	5.0552e-06	7547
bin	5.1264e-06	12826
bin	5.1976e-06	7442
bin	5.2688e-06	7324
bin	5.34e-06	7461
bin	5.4112e-06	12111
bin	5.4824e-06	7307
bin	5.5536e-06	7666
bin	5.6248e-06	11677
bin	5.696e-06	7624
bin	5.7672e-06	7295
bin	5.8384e-06	7588
bin	5.9096e-06	13630
bin	5.9808e-06	7435
bin	6.052e-06	7293
bin	6.1232e-06	7402
bin	6.1944e-06	11879
bin	6.2656e-06	7325
bin	6.3368e-06	7711
bin	6.408e-06	11869
bin	6.4792e-06	7664
bin	6.5504e-06	7581
bin	6.6216e-06	7523
bin	6.6928e-06	11507
bin	6.764e-06	7413
bin	6.8352e-06	7121
bin	6.9064e-06	7422
bin	6.9776e-06	11697
bin	7.0488e-06	7180
bin	7.12e-06	7208
bin	7.1912e-06	11519
bin	7.2624e-06	7242
bin	7.3336e-06	7370
bin	7.4048e-06	7263
bin	7.476e-06	11650
bin	7.5472e-06	7424
bin	7.6184e-06	7243
bin	7.6896e-06	7428
bin	7.7608e-06	11702
bin	7.832e-06	7360
bin	7.9032e-06	7400
bin	7.9744e-06	11567
bin	8.0456e-06	7444
bin	8.1168e-06	7502
bin	8.188e-06	7480
bin	8.2592e-06	9735
bin	8.3304e-06	7634
bin	8.4016e-06	7607
bin	8.4728e-06	7594
bin	8.544e-06	11972
bin	8.6152e-06	7509
bin	8.6864e-06	7720
bin	8.7576e-06	11957
bin	8.8288e-06	7766
bin	8.9e-06	7650
bin	8.9712e-06	7665
bin	9.0424e-06	11824
bin	9.1136e-06	7652
bin	9.1848e-06	7690
bin	9.256e-06	7894
bin	9.3272e-06	10949
bin	9.3984e-06	7628
bin	9.4696e-06	7730
bin	9.5408e-06	12008
bin	9.612e-06	7717
bin	9.6832e-06	7872
bin	9.7544e-06	8721
bin	9.8256e-06	11817
bin	9.8968e-06	7772
bin	9.968e-06	7671
bin	1.00392e-05	7682
bin	1.01104e-05	7912
bin	1.01816e-05	7751
bin	1.02528e-05	7658
bin	1.0324e-05	11937
bin	1.03952e-05	7696
bin	1.04664e-05	7691
bin	1.05376e-05	7729
bin	1.06088e-05	9770
bin	1.068e-05	7665
bin	1.07512e-05	7610
bin	1.08224e-05	7579
bin	1.08936e-05	10026
bin	1.09648e-05	7876
bin	1.1036e-05	7628
bin	1.11072e-05	9897
bin	1.11784e-05	7697
bin	1.12496e-05	7685
bin	1.13208e-05	7824
bin	1.1392e-05	11987
bin	1.14632e-05	7719
bin	1.15344e-05	7699
bin	1.16056e-05	7889
bin	1.16768e-05	11970
bin	1.1748e-05	7559
bin	1.18192e-05	7691
bin	1.18904e-05	11928
bin	1.19616e-05	7819
bin	1.20328e-05	7900
bin	1.2104e-05	7746
bin	1.21752e-05	11862
bin	1.22464e-05	7706
bin	1.23176e-05	8834
bin	1.23888e-05	7799
bin	1.246e-05	12830
bin	1.25312e-05	7628
bin	1.26024e-05	7824
bin	1.26736e-05	9852
bin	1.27448e-05	7664
bin	1.2816e-05	7819
bin	1.28872e-05	9002
bin	1.29584e-05	8955
bin	1.30296e-05	7934
bin	1.31008e-05	7751
bin	1.3172e-05	7839
bin	1.32432e-05	7809
bin	1.33144e-05	8046
bin	1.33856e-05	8963
bin	1.34568e-05	7998
bin	1.3528e-05	8924
bin	1.35992e-05	8022
bin	1.36704e-05	8894
bin	1.37416e-05	7920
bin	1.38128e-05	7803
bin	1.3884e-05	7879
bin	1.39552e-05	7873
bin	1.40264e-05	8094
bin	1.40976e-05	7966
bin	1.41688e-05	7876
bin	1.424e-05	8168
bin	1.43112e-05	8133
bin	1.43824e-05	8033
bin	1.44536e-05	8071
bin	1.45248e-05	8049
bin	1.4596e-05	8000
bin	1.46672e-05	7928
bin	1.47384e-05	7943
bin	1.48096e-05	7931
bin	1.48808e-05	8017
bin	1.4952e-05	7792
bin	1.50232e-05	8101
bin	1.50944e-05	8006
bin	1.51656e-05	7954
bin	1.52368e-05	7951
bin	1.5308e-05	8003
bin	1.53792e-05	8112
bin	1.54504e-05	7944
bin	1.55216e-05	8115
bin	1.55928e-05	8103
bin	1.5664e-05	8132
bin	1.57352e-05	8105
bin	1.58064e-05	8037
bin	1.58776e-05	8175
bin	1.59488e-05	8147
bin	1.602e-05	8027
bin	1.60912e-05	8018
bin	1.61624e-05	8092
bin	1.62336e-05	8095
bin	1.63048e-05	8201
bin	1.6376e-05	8077
bin	1.64472e-05	8095
bin	1.65184e-05	7936
bin	1.65896e-05	8207
bin	1.66608e-05	7990
bin	1.6732e-05	8060
bin	1.68032e-05	7920
bin	1.68744e-05	7788
bin	1.69456e-05	7890
bin	1.70168e-05	7927
bin	1.7088e-05	7963
bin	1.71592e-05	7827
bin	1.72304e-05	8028
bin	1.73016e-05	7884
bin	1.73728e-05	8008
bin	1.7444e-05	8032
bin	1.75152e-05	8016
bin	1.75864e-05	8153
bin	1.76576e-05	8014
bin	1.77288e-05	8032
bin	1.78e-05	8051
bin	1.78712e-05	8067
bin	1.79424e-05	7998
bin	1.80136e-05	8166
bin	1.80848e-05	8040
bin	1.8156e-05	8197
bin	1.82272e-05	8086
bin	1.82984e-05	7959
bin	1.83696e-05	8126
bin	1.84408e-05	8006
bin	1.8512e-05	8126
bin	1.85832e-05	8130
bin	1.86544e-05	8010
bin	1.87256e-05	8123
bin	1.87968e-05	8148
bin	1.8868e-05	8135
bin	1.89392e-05	8091
bin	1.90104e-05	8011
bin	1.90816e-05	8227
bin	1.91528e-05	7824
bin	1.9224e-05	8007
bin	1.92952e-05	8130
bin	1.93664e-05	8069
bin	1.94376e-05	8116
bin	1.95088e-05	8153
bin	1.958e-05	8115
bin	1.96512e-05	8169
bin	1.97224e-05	8047
bin	1.97936e-05	8079
bin	1.98648e-05	8060
bin	1.9936e-05	8128
bin	2.00072e-05	8109
bin	2.00784e-05	8058
bin	2.01496e-05	8061
bin	2.02208e-05	8224
bin	2.0292e-05	8126
bin	2.03632e-05	8063
bin	2.04344e-05	8025
bin	2.05056e-05	8189
bin	2.05768e-05	8184
bin	2.0648e-05	8107
bin	2.07192e-05	8370
bin	2.07904e-05	8081
bin	2.08616e-05	8008
bin	2.09328e-05	8150
bin	2.1004e-05	8258
bin	2.10752e-05	8101
bin	2.11464e-05	8321
bin	2.12176e-05	8158
bin	2.12888e-05	8235
bin	2.136e-05	8136
bin	2.14312e-05	8085
bin	2.15024e-05	8152
bin	2.15736e-05	8170
bin	2.16448e-05	8151
bin	2.1716e-05	8133
bin	2.17872e-05	8324
bin	2.18584e-05	8156
bin	2.19296e-05	8401
bin	2.20008e-05	8051
bin	2.2072e-05	8230
bin	2.21432e-05	8040
bin	2.22144e-05	8085
bin	2.22856e-05	8145
bin	2.23568e-05	8037
bin	2.2428e-05	8117
bin	2.24992e-05	7914
bin	2.25704e-05	8079
bin	2.26416e-05	7945
bin	2.27128e-05	8260
bin	2.2784e-05	8048
bin	2.28552e-05	8005
bin	2.29264e-05	7983
bin	2.29976e-05	7961
bin	2.30688e-05	7994
bin	2.314e-05	7894
bin	2.32112e-05	7981
bin	2.32824e-05	8094
bin	2.33536e-05	8190
bin	2.34248e-05	7860
bin	2.3496e-05	8043
bin	2.35672e-05	7973
bin	2.36384e-05	7965
bin	2.37096e-05	7950
bin	2.37808e-05	7938
bin	2.3852e-05	8028
bin	2.39232e-05	7804
bin	2.39944e-05	8010
bin	2.40656e-05	7913
bin	2.41368e-05	7989
bin	2.4208e-05	7868
bin	2.42792e-05	7922
bin	2.43504e-05	7852
bin	2.44216e-05	7910
bin	2.44928e-05	7890
bin	2.4564e-05	7862
bin	2.46352e-05	8167
bin	2.47064e-05	7798
bin	2.47776e-05	7976
bin	2.48488e-05	7914
bin	2.492e-05	8185
bin	2.49912e-05	7853
bin	2.50624e-05	7956
bin	2.51336e-05	7786
bin	2.52048e-05	7975
bin	2.5276e-05	7946
bin	2.53472e-05	7934
bin	2.54184e-05	8058
bin	2.54896e-05	7897
bin	2.55608e-05	7834
bin	2.5632e-05	7928
bin	2.57032e-05	7969
bin	2.57744e-05	7857
bin	2.58456e-05	7989
bin	2.59168e-05	7785
bin	2.5988e-05	7991
bin	2.60592e-05	7936
bin	2.61304e-05	7852
bin	2.62016e-05	7890
bin	2.62728e-05	7806
bin	2.6344e-05	7926
bin	2.64152e-05	7825
bin	2.64864e-05	7889
bin	2.65576e-05	7763
bin	2.66288e-05	7841
bin	2.67e-05	7841
bin	2.67712e-05	7884
bin	2.68424e-05	7644
bin	2.69136e-05	7772
bin	2.69848e-05	7763
bin	2.7056e-05	7700
bin	2.71272e-05	7771
bin	2.71984e-05	7951
bin	2.72696e-05	7909
bin	2.73408e-05	7579
bin	2.7412e-05	7848
bin	2.74832e-05	7776
bin	2.75544e-05	7731
bin	2.76256e-05	7673
bin	2.76968e-05	7686
bin	2.7768e-05	7753
bin	2.78392e-05	7604
bin	2.79104e-05	7647
bin	2.79816e-05	7628
bin	2.80528e-05	7651
bin	2.8124e-05	7546
bin	2.81952e-05	7676
bin	2.82664e-05	7528
bin	2.83376e-05	7776
bin	2.84088e-05	7700
bin	2.848e-05	7733
bin	2.85512e-05	7723
bin	2.86224e-05	7698
bin	2.86936e-05	7476
bin	2.87648e-05	7688
bin	2.8836e-05	7377
bin	2.89072e-05	7450
bin	2.89784e-05	7496
bin	2.90496e-05	7602
bin	2.91208e-05	7674
bin	2.9192e-05	7582
bin	2.92632e-05	7507
bin	2.93344e-05	7404
bin	2.94056e-05	7432
bin	2.94768e-05	7517
bin	2.9548e-05	7531
bin	2.96192e-05	7369
bin	2.96904e-05	7322
bin	2.97616e-05	7512
bin	2.98328e-05	7446
bin	2.9904e-05	7330
bin	2.99752e-05	7378
bin	3.00464e-05	7402
bin	3.01176e-05	7427
bin	3.01888e-05	7437
bin	3.026e-05	7197
bin	3.03312e-05	7432
bin	3.04024e-05	7256
bin	3.04736e-05	7363
bin	3.05448e-05	7349
bin	3.0616e-05	7195
bin	3.06872e-05	7360
bin	3.07584e-05	7309
bin	3.08296e-05	7298
bin	3.09008e-05	7346
bin	3.0972e-05	7136
bin	3.10432e-05	7113
bin	3.11144e-05	7298
bin	3.11856e-05	7116
bin	3.12568e-05	6993
bin	3.1328e-05	7211
bin	3.13992e-05	7137
bin	3.14704e-05	7220
bin	3.15416e-05	7030
bin	3.16128e-05	7089
bin	3.1684e-05	7223
bin	3.17552e-05	7158
bin	3.18264e-05	7016
bin	3.18976e-05	7164
bin	3.19688e-05	7032
bin	3.204e-05	6987
bin	3.21112e-05	6829
bin	3.21824e-05	6934
bin	3.22536e-05	6969
bin	3.23248e-05	7019
bin	3.2396e-05	6831
bin	3.24672e-05	6863
bin	3.25384e-05	6651
bin	3.26096e-05	6686
bin	3.26808e-05	6801
bin	3.2752e-05	6810
bin	3.28232e-05	6583
bin	3.28944e-05	6790
bin	3.29656e-05	6676
bin	3.30368e-05	6627
bin	3.3108e-05	6715
bin	3.31792e-05	6645
bin	3.32504e-05	6518
bin	3.33216e-05	6454
bin	3.33928e-05	6332
bin	3.3464e-05	6547
bin	3.35352e-05	6440
bin	3.36064e-05	6231
bin	3.36776e-05	6626
bin	3.37488e-05	6342
bin	3.382e-05	6287
bin	3.38912e-05	6292
bin	3.39624e-05	6329
bin	3.40336e-05	6380
bin	3.41048e-05	6129
bin	3.4176e-05	6061
bin	3.42472e-05	6267
bin	3.43184e-05	6140
bin	3.43896e-05	5931
bin	3.44608e-05	6143
bin	3.4532e-05	6161
bin	3.46032e-05	6140
bin	3.46744e-05	6112
bin	3.47456e-05	5921
bin	3.48168e-05	5885
bin	3.4888e-05	5805
bin	3.49592e-05	5890
bin	3.50304e-05	5996
bin	3.51016e-05	5866
bin	3.51728e-05	5627
bin	3.5244e-05	5922
bin	3.53152e-05	5641
bin	3.53864e-05	5723
bin	3.54576e-05	5743
bin	3.55288e-05	5702
bin	3.56e-05	2242668
statistic Torus3d_bub.timer 	"Life Times"
field count 6291456
field mean 0.00021024679375148
field stddev 0.00013742782401693
field sum 1322.7584520285
field sqrsum 0.39692870202883
field min 7.33332757e-07
field max 0.000810808333285
bin	-INF	0
bin	0	4225
bin	8.544e-07	19462
bin	1.7088e-06	28575
bin	2.5632e-06	23048
bin	3.4176e-06	21337
bin	4.272e-06	26877
bin	5.1264e-06	32668
bin	5.9808e-06	24591
bin	6.8352e-06	20750
bin	7.6896e-06	25063
bin	8.544e-06	24567
bin	9.3984e-06	22713
bin	1.02528e-05	27179
bin	1.11072e-05	34526
bin	1.19616e-05	35105
bin	1.2816e-05	15972
bin	1.36704e-05	16839
bin	1.45248e-05	14292
bin	1.53792e-05	23727
bin	1.62336e-05	21135
bin	1.7088e-05	18167
bin	1.79424e-05	21510
bin	1.87968e-05	16017
bin	1.96512e-05	14612
bin	2.05056e-05	15806
bin	2.136e-05	15327
bin	2.22144e-05	15681
bin	2.30688e-05	15766
bin	2.39232e-05	16835
bin	2.47776e-05	15878
bin	2.5632e-05	14981
bin	2.64864e-05	16118
bin	2.73408e-05	13514
bin	2.81952e-05	12737
bin	2.90496e-05	16002
bin	2.9904e-05	13223
bin	3.07584e-05	14266
bin	3.16128e-05	12658
bin	3.24672e-05	12776
bin	3.33216e-05	12460
bin	3.4176e-05	12225
bin	3.50304e-05	12204
bin	3.58848e-05	12255
bin	3.67392e-05	12474
bin	3.75936e-05	12542
bin	3.8448e-05	12673
bin	3.93024e-05	12588
bin	4.01568e-05	12788
bin	4.10112e-05	12527
bin	4.18656e-05	13012
bin	4.272e-05	12807
bin	4.35744e-05	12706
bin	4.44288e-05	12617
bin	4.52832e-05	12727
bin	4.61376e-05	12542
bin	4.6992e-05	12525
bin	4.78464e-05	12369
bin	4.87008e-05	12280
bin	4.95552e-05	12105
bin	5.04096e-05	11949
bin	5.1264e-05	12017
bin	5.21184e-05	12142
bin	5.29728e-05	12110
bin	5.38272e-05	11950
bin	5.46816e-05	11881
bin	5.5536e-05	11935
bin	5.63904e-05	11918
bin	5.72448e-05	11872
bin	5.80992e-05	11911
bin	5.89536e-05	11879
bin	5.9808e-05	11675
bin	6.06624e-05	11724
bin	6.15168e-05	12123
bin	6.23712e-05	11884
bin	6.32256e-05	11744
bin	6.408e-05	11785
bin	6.49344e-05	11786
bin	6.57888e-05	11767
bin	6.66432e-05	11759
bin	6.74976e-05	11808
bin	6.8352e-05	11869
bin	6.92064e-05	11721
bin	7.00608e-05	11997
bin	7.09152e-05	12054
bin	7.17696e-05	11711
bin	7.2624e-05	11586
bin	7.34784e-05	11754
bin	7.43328e-05	11629
bin	7.51872e-05	11568
bin	7.60416e-05	11596
bin	7.6896e-05	11741
bin	7.77504e-05	11644
bin	7.86048e-05	11368
bin	7.94592e-05	11638
bin	8.03136e-05	11644
bin	8.1168e-05	11594
bin	8.20224e-05	11655
bin	8.28768e-05	11954
bin	8.37312e-05	11879
bin	8.45856e-05	11638
bin	8.544e-05	11696
bin	8.62944e-05	11599
bin	8.71488e-05	11509
bin	8.80032e-05	11606
bin	8.88576e-05	11482
bin	8.9712e-05	11644
bin	9.05664e-05	11324
bin	9.14208e-05	11256
bin	9.22752e-05	11523
bin	9.31296e-05	11540
bin	9.3984e-05	11279
bin	9.48384e-05	11406
bin	9.56928e-05	11559
bin	9.65472e-05	11601
bin	9.74016e-05	11394
bin	9.8256e-05	11382
bin	9.91104e-05	11376
bin	9.99648e-05	11306
bin	0.0001008192	11267
bin	0.0001016736	11378
bin	0.000102528	11422
bin	0.0001033824	11331
bin	0.0001042368	11560
bin	0.0001050912	11566
bin	0.0001059456	11436
bin	0.0001068	11623
bin	0.0001076544	11556
bin	0.0001085088	11600
bin	0.0001093632	11531
bin	0.0001102176	11486
bin	0.000111072	11589
bin	0.0001119264	11599
bin	0.0001127808	11532
bin	0.0001136352	11505
bin	0.0001144896	11560
bin	0.000115344	11527
bin	0.0001161984	11483
bin	0.0001170528	11364
bin	0.0001179072	11391
bin	0.0001187616	11524
bin	0.000119616	11668
bin	0.0001204704	11603
bin	0.0001213248	11571
bin	0.0001221792	11597
bin	0.0001230336	11519
bin	0.000123888	11592
bin	0.0001247424	11448
bin	0.0001255968	11511
bin	0.0001264512	11628
bin	0.0001273056	11695
bin	0.00012816	11674
bin	0.0001290144	11869
bin	0.0001298688	11805
bin	0.0001307232	11826
bin	0.0001315776	12039
bin	0.000132432	11933
bin	0.0001332864	11921
bin	0.0001341408	11845
bin	0.0001349952	12032
bin	0.0001358496	11993
bin	0.000136704	11966
bin	0.0001375584	11869
bin	0.0001384128	11765
bin	0.0001392672	11856
bin	0.0001401216	11917
bin	0.000140976	12081
bin	0.0001418304	12312
bin	0.0001426848	12280
bin	0.0001435392	12190
bin	0.0001443936	12348
bin	0.000145248	12558
bin	0.0001461024	12293
bin	0.0001469568	12359
bin	0.0001478112	12314
bin	0.0001486656	12253
bin	0.00014952	12382
bin	0.0001503744	12383
bin	0.0001512288	12537
bin	0.0001520832	12382
bin	0.0001529376	12279
bin	0.000153792	12381
bin	0.0001546464	12406
bin	0.0001555008	12528
bin	0.0001563552	12467
bin	0.0001572096	12467
bin	0.000158064	12582
bin	0.0001589184	12541
bin	0.0001597728	12645
bin	0.0001606272	12476
bin	0.0001614816	12593
bin	0.000162336	12580
bin	0.0001631904	12574
bin	0.0001640448	12812
bin	0.0001648992	12496
bin	0.0001657536	12592
bin	0.000166608	12570
bin	0.0001674624	12793
bin	0.0001683168	12585
bin	0.0001691712	12813
bin	0.0001700256	12562
bin	0.00017088	12479
bin	0.0001717344	12730
bin	0.0001725888	12847
bin	0.0001734432	13036
bin	0.0001742976	12867
bin	0.000175152	12764
bin	0.0001760064	12870
bin	0.0001768608	13035
bin	0.0001777152	12803
bin	0.0001785696	12874
bin	0.000179424	12682
bin	0.0001802784	12594
bin	0.0001811328	12551
bin	0.0001819872	12586
bin	0.0001828416	12566
bin	0.000183696	12573
bin	0.0001845504	12686
bin	0.0001854048	12656
bin	0.0001862592	12789
bin	0.0001871136	12677
bin	0.000187968	12704
bin	0.0001888224	12621
bin	0.0001896768	12621
bin	0.0001905312	12635
bin	0.0001913856	12426
bin	0.00019224	12506
bin	0.0001930944	12524
bin	0.0001939488	12612
bin	0.0001948032	12627
bin	0.0001956576	12809
bin	0.000196512	12489
bin	0.0001973664	12627
bin	0.0001982208	12334
bin	0.0001990752	12424
bin	0.0001999296	12536
bin	0.000200784	12525
bin	0.0002016384	12354
bin	0.0002024928	12390
bin	0.0002033472	12385
bin	0.0002042016	12328
bin	0.000205056	12328
bin	0.0002059104	12359
bin	0.0002067648	12560
bin	0.0002076192	12489
bin	0.0002084736	12319
bin	0.000209328	12261
bin	0.0002101824	12326
bin	0.0002110368	12228
bin	0.0002118912	12336
bin	0.0002127456	12419
bin	0.0002136	12413
bin	0.0002144544	12399
bin	0.0002153088	12271
bin	0.0002161632	12288
bin	0.0002170176	12167
bin	0.000217872	12230
bin	0.0002187264	12135
bin	0.0002195808	12237
bin	0.0002204352	12199
bin	0.0002212896	12463
bin	0.000222144	12286
bin	0.0002229984	12276
bin	0.0002238528	12250
bin	0.0002247072	12333
bin	0.0002255616	12249
bin	0.000226416	12466
bin	0.0002272704	12450
bin	0.0002281248	12479
bin	0.0002289792	12382
bin	0.0002298336	12294
bin	0.000230688	12179
bin	0.0002315424	12310
bin	0.0002323968	12383
bin	0.0002332512	12288
bin	0.0002341056	12265
bin	0.00023496	12282
bin	0.0002358144	12321
bin	0.0002366688	12101
bin	0.0002375232	12077
bin	0.0002383776	12151
bin	0.000239232	12077
bin	0.0002400864	12057
bin	0.0002409408	12206
bin	0.0002417952	11996
bin	0.0002426496	11966
bin	0.000243504	12153
bin	0.0002443584	12018
bin	0.0002452128	11882
bin	0.0002460672	12041
bin	0.0002469216	11844
bin	0.000247776	12091
bin	0.0002486304	11853
bin	0.0002494848	11864
bin	0.0002503392	11794
bin	0.0002511936	11677
bin	0.000252048	11730
bin	0.0002529024	11733
bin	0.0002537568	11866
bin	0.0002546112	11800
bin	0.0002554656	11699
bin	0.00025632	11573
bin	0.0002571744	11638
bin	0.0002580288	11725
bin	0.0002588832	11646
bin	0.0002597376	11622
bin	0.000260592	11783
bin	0.0002614464	11708
bin	0.0002623008	11670
bin	0.0002631552	11648
bin	0.0002640096	11551
bin	0.000264864	11434
bin	0.0002657184	11363
bin	0.0002665728	11565
bin	0.0002674272	11571
bin	0.0002682816	11455
bin	0.000269136	11406
bin	0.0002699904	11292
bin	0.0002708448	11402
bin	0.0002716992	11584
bin	0.0002725536	11528
bin	0.000273408	11516
bin	0.0002742624	11527
bin	0.0002751168	11410
bin	0.0002759712	11506
bin	0.0002768256	11599
bin	0.00027768	11587
bin	0.0002785344	11408
bin	0.0002793888	11278
bin	0.0002802432	11380
bin	0.0002810976	11253
bin	0.000281952	11209
bin	0.0002828064	11197
bin	0.0002836608	11320
bin	0.0002845152	11251
bin	0.0002853696	11425
bin	0.000286224	11390
bin	0.0002870784	11233
bin	0.0002879328	11386
bin	0.0002887872	11263
bin	0.0002896416	11272
bin	0.000290496	11103
bin	0.0002913504	11228
bin	0.0002922048	11094
bin	0.0002930592	10950
bin	0.0002939136	11005
bin	0.000294768	11101
bin	0.0002956224	11261
bin	0.0002964768	11165
bin	0.0002973312	11272
bin	0.0002981856	11342
bin	0.00029904	11240
bin	0.0002998944	11050
bin	0.0003007488	10900
bin	0.0003016032	11169
bin	0.0003024576	11056
bin	0.000303312	10908
bin	0.0003041664	10926
bin	0.0003050208	10998
bin	0.0003058752	11076
bin	0.0003067296	11024
bin	0.000307584	11078
bin	0.0003084384	10754
bin	0.0003092928	10841
bin	0.0003101472	10666
bin	0.0003110016	10669
bin	0.000311856	10681
bin	0.0003127104	10767
bin	0.0003135648	10671
bin	0.0003144192	10790
bin	0.0003152736	10633
bin	0.000316128	10739
bin	0.0003169824	10839
bin	0.0003178368	10595
bin	0.0003186912	10684
bin	0.0003195456	10782
bin	0.0003204	10682
bin	0.0003212544	10570
bin	0.0003221088	10664
bin	0.0003229632	10589
bin	0.0003238176	10352
bin	0.000324672	10634
bin	0.0003255264	10383
bin	0.0003263808	10547
bin	0.0003272352	10408
bin	0.0003280896	10359
bin	0.000328944	10592
bin	0.0003297984	10523
bin	0.0003306528	10561
bin	0.0003315072	10496
bin	0.0003323616	10323
bin	0.000333216	10333
bin	0.0003340704	10291
bin	0.0003349248	10415
bin	0.0003357792	10226
bin	0.0003366336	10370
bin	0.000337488	10381
bin	0.0003383424	10137
bin	0.0003391968	10042
bin	0.0003400512	10113
bin	0.0003409056	10116
bin	0.00034176	10128
bin	0.0003426144	10034
bin	0.0003434688	10010
bin	0.0003443232	10004
bin	0.0003451776	10051
bin	0.000346032	9951
bin	0.0003468864	10083
bin	0.0003477408	9931
bin	0.0003485952	10087
bin	0.0003494496	10064
bin	0.000350304	10077
bin	0.0003511584	9957
bin	0.0003520128	10000
bin	0.0003528672	9992
bin	0.0003537216	10029
bin	0.000354576	9853
bin	0.0003554304	10008
bin	0.0003562848	10115
bin	0.0003571392	10079
bin	0.0003579936	9924
bin	0.000358848	9860
bin	0.0003597024	10020
bin	0.0003605568	9960
bin	0.0003614112	10021
bin	0.0003622656	10013
bin	0.00036312	10021
bin	0.0003639744	9955
bin	0.0003648288	9968
bin	0.0003656832	10060
bin	0.0003665376	9786
bin	0.000367392	9935
bin	0.0003682464	9813
bin	0.0003691008	9699
bin	0.0003699552	9761
bin	0.0003708096	9787
bin	0.000371664	9639
bin	0.0003725184	9626
bin	0.0003733728	9635
bin	0.0003742272	9401
bin	0.0003750816	9506
bin	0.000375936	9307
bin	0.0003767904	9547
bin	0.0003776448	9621
bin	0.0003784992	9416
bin	0.0003793536	9415
bin	0.000380208	9586
bin	0.0003810624	9426
bin	0.0003819168	9184
bin	0.0003827712	9254
bin	0.0003836256	9330
bin	0.00038448	9160
bin	0.0003853344	9029
bin	0.0003861888	8965
bin	0.0003870432	9126
bin	0.0003878976	9106
bin	0.000388752	8901
bin	0.0003896064	8789
bin	0.0003904608	8713
bin	0.0003913152	8788
bin	0.0003921696	8639
bin	0.000393024	8629
bin	0.0003938784	8595
bin	0.0003947328	8381
bin	0.0003955872	8458
bin	0.0003964416	8263
bin	0.000397296	8329
bin	0.0003981504	8117
bin	0.0003990048	8231
bin	0.0003998592	8061
bin	0.0004007136	8042
bin	0.000401568	8098
bin	0.0004024224	8040
bin	0.0004032768	8071
bin	0.0004041312	8056
bin	0.0004049856	8025
bin	0.00040584	7810
bin	0.0004066944	7700
bin	0.0004075488	7596
bin	0.0004084032	7558
bin	0.0004092576	7477
bin	0.000410112	7536
bin	0.0004109664	7442
bin	0.0004118208	7393
bin	0.0004126752	7358
bin	0.0004135296	7209
bin	0.000414384	7100
bin	0.0004152384	6976
bin	0.0004160928	6902
bin	0.0004169472	6678
bin	0.0004178016	6565
bin	0.000418656	6653
bin	0.0004195104	6608
bin	0.0004203648	6522
bin	0.0004212192	6352
bin	0.0004220736	6540
bin	0.000422928	6473
bin	0.0004237824	6402
bin	0.0004246368	6371
bin	0.0004254912	6262
bin	0.0004263456	6198
bin	0.0004272	398080
