version 2
run Butterfly-23-20120709-10:43:08-22762
attr alg 3
attr buf 8
attr configname Butterfly
attr datetime 20120709-10:43:08
attr delta 1.2
attr experiment Butterfly
attr ext true
attr inifile altro.ini
attr iterationvars "$buf=8, $ext=true, $ofedge=1, $delta=1.2, $alg=3"
attr iterationvars2 "$buf=8, $ext=true, $ofedge=1, $delta=1.2, $alg=3, $repetition=0"
attr measurement "$buf=8, $ext=true, $ofedge=1, $delta=1.2, $alg=3"
attr network Torus3d_bub
attr ofedge 1
attr processid 22762
attr repetition 0
attr replication #0
attr resultdir altro-results
attr runnumber 23
attr seedset 23

scalar . 	alg 	3
scalar . 	buf 	8
scalar . 	delta 	1.2
scalar . 	ofedge 	1
scalar Torus3d_bub.timer 	#endTime 	0.000905221665275
scalar Torus3d_bub.timer 	#totalHops 	35191419
scalar Torus3d_bub.timer 	#totalPacks 	6291456
scalar Torus3d_bub.timer 	#totalDerouted 	4272883
scalar Torus3d_bub.timer 	#totalOutFlanked 	4040840
scalar Torus3d_bub.timer 	#totalCQRed 	232043
scalar Torus3d_bub.timer 	#LB 	0.000786432
scalar Torus3d_bub.timer 	#ratio 	0.8687728433467
statistic Torus3d_bub.timer 	"Hop Times"
field count 6291456
field mean 1.7110241827458e-05
field stddev 2.3830213751428e-05
field sum 107.64833360681
field sqrsum 0.0054146747443975
field min 4.20888755e-07
field max 0.000463122332513
bin	-INF	0
bin	0	0
bin	7.12e-08	0
bin	1.424e-07	0
bin	2.136e-07	0
bin	2.848e-07	0
bin	3.56e-07	2
bin	4.272e-07	206
bin	4.984e-07	3942
bin	5.696e-07	4530
bin	6.408e-07	5216
bin	7.12e-07	9367
bin	7.832e-07	4540
bin	8.544e-07	8603
bin	9.256e-07	14655
bin	9.968e-07	13132
bin	1.068e-06	12996
bin	1.1392e-06	20124
bin	1.2104e-06	20984
bin	1.2816e-06	22176
bin	1.3528e-06	22466
bin	1.424e-06	19566
bin	1.4952e-06	27529
bin	1.5664e-06	20196
bin	1.6376e-06	21934
bin	1.7088e-06	28306
bin	1.78e-06	25968
bin	1.8512e-06	30080
bin	1.9224e-06	30975
bin	1.9936e-06	32443
bin	2.0648e-06	34537
bin	2.136e-06	30261
bin	2.2072e-06	32029
bin	2.2784e-06	41814
bin	2.3496e-06	34211
bin	2.4208e-06	37549
bin	2.492e-06	38865
bin	2.5632e-06	35509
bin	2.6344e-06	36791
bin	2.7056e-06	36437
bin	2.7768e-06	39082
bin	2.848e-06	34976
bin	2.9192e-06	34732
bin	2.9904e-06	31595
bin	3.0616e-06	40026
bin	3.1328e-06	32941
bin	3.204e-06	36542
bin	3.2752e-06	38267
bin	3.3464e-06	28579
bin	3.4176e-06	29008
bin	3.4888e-06	31244
bin	3.56e-06	33957
bin	3.6312e-06	26521
bin	3.7024e-06	28103
bin	3.7736e-06	29961
bin	3.8448e-06	31125
bin	3.916e-06	29681
bin	3.9872e-06	27918
bin	4.0584e-06	32780
bin	4.1296e-06	27321
bin	4.2008e-06	27142
bin	4.272e-06	31243
bin	4.3432e-06	29987
bin	4.4144e-06	25179
bin	4.4856e-06	24459
bin	4.5568e-06	23843
bin	4.628e-06	28641
bin	4.6992e-06	23028
bin	4.7704e-06	23191
bin	4.8416e-06	27827
bin	4.9128e-06	22436
bin	4.984e-06	21700
bin	5.0552e-06	24075
bin	5.1264e-06	30615
bin	5.1976e-06	21876
bin	5.2688e-06	25847
bin	5.34e-06	22590
bin	5.4112e-06	27349
bin	5.4824e-06	23489
bin	5.5536e-06	23421
bin	5.6248e-06	27441
bin	5.696e-06	23306
bin	5.7672e-06	23160
bin	5.8384e-06	22179
bin	5.9096e-06	28902
bin	5.9808e-06	20873
bin	6.052e-06	22894
bin	6.1232e-06	20965
bin	6.1944e-06	26574
bin	6.2656e-06	20536
bin	6.3368e-06	20204
bin	6.408e-06	25019
bin	6.4792e-06	20008
bin	6.5504e-06	19680
bin	6.6216e-06	19503
bin	6.6928e-06	24555
bin	6.764e-06	19404
bin	6.8352e-06	19187
bin	6.9064e-06	19161
bin	6.9776e-06	24109
bin	7.0488e-06	18661
bin	7.12e-06	18557
bin	7.1912e-06	23424
bin	7.2624e-06	18309
bin	7.3336e-06	18306
bin	7.4048e-06	18374
bin	7.476e-06	22877
bin	7.5472e-06	18111
bin	7.6184e-06	17870
bin	7.6896e-06	17715
bin	7.7608e-06	22766
bin	7.832e-06	17462
bin	7.9032e-06	17431
bin	7.9744e-06	22614
bin	8.0456e-06	17446
bin	8.1168e-06	17639
bin	8.188e-06	17883
bin	8.2592e-06	18046
bin	8.3304e-06	17315
bin	8.4016e-06	17164
bin	8.4728e-06	16964
bin	8.544e-06	21740
bin	8.6152e-06	16715
bin	8.6864e-06	18412
bin	8.7576e-06	21308
bin	8.8288e-06	17932
bin	8.9e-06	15917
bin	8.9712e-06	17851
bin	9.0424e-06	20336
bin	9.1136e-06	15330
bin	9.1848e-06	17271
bin	9.256e-06	15039
bin	9.3272e-06	22044
bin	9.3984e-06	15043
bin	9.4696e-06	17287
bin	9.5408e-06	15652
bin	9.612e-06	16952
bin	9.6832e-06	14748
bin	9.7544e-06	15048
bin	9.8256e-06	17588
bin	9.8968e-06	14900
bin	9.968e-06	14934
bin	1.00392e-05	14444
bin	1.01104e-05	19805
bin	1.01816e-05	14548
bin	1.02528e-05	14609
bin	1.0324e-05	17475
bin	1.03952e-05	14553
bin	1.04664e-05	14391
bin	1.05376e-05	14649
bin	1.06088e-05	15312
bin	1.068e-05	14410
bin	1.07512e-05	14477
bin	1.08224e-05	14188
bin	1.08936e-05	17304
bin	1.09648e-05	14039
bin	1.1036e-05	14086
bin	1.11072e-05	19302
bin	1.11784e-05	14259
bin	1.12496e-05	13944
bin	1.13208e-05	14016
bin	1.1392e-05	16591
bin	1.14632e-05	13641
bin	1.15344e-05	13632
bin	1.16056e-05	13558
bin	1.16768e-05	18595
bin	1.1748e-05	13221
bin	1.18192e-05	13366
bin	1.18904e-05	16413
bin	1.19616e-05	13134
bin	1.20328e-05	13350
bin	1.2104e-05	13348
bin	1.21752e-05	17996
bin	1.22464e-05	13178
bin	1.23176e-05	13043
bin	1.23888e-05	12777
bin	1.246e-05	15454
bin	1.25312e-05	12833
bin	1.26024e-05	12817
bin	1.26736e-05	17475
bin	1.27448e-05	12636
bin	1.2816e-05	12702
bin	1.28872e-05	12725
bin	1.29584e-05	14843
bin	1.30296e-05	12533
bin	1.31008e-05	12515
bin	1.3172e-05	12414
bin	1.32432e-05	12784
bin	1.33144e-05	12128
bin	1.33856e-05	12119
bin	1.34568e-05	12406
bin	1.3528e-05	12103
bin	1.35992e-05	12263
bin	1.36704e-05	12211
bin	1.37416e-05	12284
bin	1.38128e-05	11930
bin	1.3884e-05	11920
bin	1.39552e-05	11683
bin	1.40264e-05	12078
bin	1.40976e-05	11446
bin	1.41688e-05	11677
bin	1.424e-05	11853
bin	1.43112e-05	11432
bin	1.43824e-05	11619
bin	1.44536e-05	11316
bin	1.45248e-05	11267
bin	1.4596e-05	11191
bin	1.46672e-05	11226
bin	1.47384e-05	11041
bin	1.48096e-05	11325
bin	1.48808e-05	10783
bin	1.4952e-05	10874
bin	1.50232e-05	11325
bin	1.50944e-05	10629
bin	1.51656e-05	10948
bin	1.52368e-05	10666
bin	1.5308e-05	10703
bin	1.53792e-05	10151
bin	1.54504e-05	10490
bin	1.55216e-05	10355
bin	1.55928e-05	10395
bin	1.5664e-05	10055
bin	1.57352e-05	10164
bin	1.58064e-05	10493
bin	1.58776e-05	10023
bin	1.59488e-05	10036
bin	1.602e-05	9937
bin	1.60912e-05	10178
bin	1.61624e-05	9835
bin	1.62336e-05	9986
bin	1.63048e-05	9860
bin	1.6376e-05	10118
bin	1.64472e-05	9558
bin	1.65184e-05	9817
bin	1.65896e-05	9867
bin	1.66608e-05	9569
bin	1.6732e-05	9846
bin	1.68032e-05	9550
bin	1.68744e-05	9610
bin	1.69456e-05	9454
bin	1.70168e-05	9627
bin	1.7088e-05	9480
bin	1.71592e-05	9563
bin	1.72304e-05	9210
bin	1.73016e-05	9126
bin	1.73728e-05	9621
bin	1.7444e-05	8942
bin	1.75152e-05	9328
bin	1.75864e-05	9272
bin	1.76576e-05	9213
bin	1.77288e-05	8808
bin	1.78e-05	8986
bin	1.78712e-05	8726
bin	1.79424e-05	8832
bin	1.80136e-05	8504
bin	1.80848e-05	8465
bin	1.8156e-05	8792
bin	1.82272e-05	8319
bin	1.82984e-05	8457
bin	1.83696e-05	8291
bin	1.84408e-05	8582
bin	1.8512e-05	8176
bin	1.85832e-05	8252
bin	1.86544e-05	8089
bin	1.87256e-05	8195
bin	1.87968e-05	7899
bin	1.8868e-05	8107
bin	1.89392e-05	8123
bin	1.90104e-05	7777
bin	1.90816e-05	7993
bin	1.91528e-05	7722
bin	1.9224e-05	7792
bin	1.92952e-05	7503
bin	1.93664e-05	7684
bin	1.94376e-05	7619
bin	1.95088e-05	7831
bin	1.958e-05	7576
bin	1.96512e-05	7811
bin	1.97224e-05	8115
bin	1.97936e-05	7552
bin	1.98648e-05	7676
bin	1.9936e-05	7766
bin	2.00072e-05	7707
bin	2.00784e-05	7464
bin	2.01496e-05	7693
bin	2.02208e-05	7449
bin	2.0292e-05	7644
bin	2.03632e-05	7273
bin	2.04344e-05	7479
bin	2.05056e-05	7840
bin	2.05768e-05	7500
bin	2.0648e-05	7256
bin	2.07192e-05	7476
bin	2.07904e-05	7227
bin	2.08616e-05	7054
bin	2.09328e-05	7098
bin	2.1004e-05	6989
bin	2.10752e-05	7035
bin	2.11464e-05	6725
bin	2.12176e-05	6912
bin	2.12888e-05	7053
bin	2.136e-05	6538
bin	2.14312e-05	6644
bin	2.15024e-05	6632
bin	2.15736e-05	6741
bin	2.16448e-05	6456
bin	2.1716e-05	6469
bin	2.17872e-05	6442
bin	2.18584e-05	6482
bin	2.19296e-05	6159
bin	2.20008e-05	6296
bin	2.2072e-05	6463
bin	2.21432e-05	6058
bin	2.22144e-05	6403
bin	2.22856e-05	6327
bin	2.23568e-05	6119
bin	2.2428e-05	5858
bin	2.24992e-05	6163
bin	2.25704e-05	5931
bin	2.26416e-05	6172
bin	2.27128e-05	5839
bin	2.2784e-05	6042
bin	2.28552e-05	6240
bin	2.29264e-05	5687
bin	2.29976e-05	5863
bin	2.30688e-05	5753
bin	2.314e-05	5908
bin	2.32112e-05	5487
bin	2.32824e-05	5737
bin	2.33536e-05	5858
bin	2.34248e-05	5558
bin	2.3496e-05	5388
bin	2.35672e-05	5621
bin	2.36384e-05	5683
bin	2.37096e-05	5472
bin	2.37808e-05	5504
bin	2.3852e-05	5466
bin	2.39232e-05	5400
bin	2.39944e-05	5175
bin	2.40656e-05	5451
bin	2.41368e-05	5517
bin	2.4208e-05	5310
bin	2.42792e-05	5161
bin	2.43504e-05	5187
bin	2.44216e-05	5501
bin	2.44928e-05	4938
bin	2.4564e-05	5256
bin	2.46352e-05	5092
bin	2.47064e-05	5257
bin	2.47776e-05	4932
bin	2.48488e-05	5209
bin	2.492e-05	5176
bin	2.49912e-05	4914
bin	2.50624e-05	4790
bin	2.51336e-05	4866
bin	2.52048e-05	5048
bin	2.5276e-05	4625
bin	2.53472e-05	4878
bin	2.54184e-05	4764
bin	2.54896e-05	4886
bin	2.55608e-05	4696
bin	2.5632e-05	4872
bin	2.57032e-05	4860
bin	2.57744e-05	4625
bin	2.58456e-05	4535
bin	2.59168e-05	4693
bin	2.5988e-05	4749
bin	2.60592e-05	4478
bin	2.61304e-05	4650
bin	2.62016e-05	4416
bin	2.62728e-05	4582
bin	2.6344e-05	4339
bin	2.64152e-05	4472
bin	2.64864e-05	4551
bin	2.65576e-05	4336
bin	2.66288e-05	4234
bin	2.67e-05	4406
bin	2.67712e-05	4466
bin	2.68424e-05	4197
bin	2.69136e-05	4299
bin	2.69848e-05	4207
bin	2.7056e-05	4206
bin	2.71272e-05	4109
bin	2.71984e-05	4123
bin	2.72696e-05	4196
bin	2.73408e-05	4013
bin	2.7412e-05	3898
bin	2.74832e-05	4083
bin	2.75544e-05	4090
bin	2.76256e-05	3806
bin	2.76968e-05	3996
bin	2.7768e-05	3905
bin	2.78392e-05	3906
bin	2.79104e-05	3778
bin	2.79816e-05	3892
bin	2.80528e-05	3897
bin	2.8124e-05	3818
bin	2.81952e-05	3637
bin	2.82664e-05	3772
bin	2.83376e-05	3873
bin	2.84088e-05	3667
bin	2.848e-05	3796
bin	2.85512e-05	3612
bin	2.86224e-05	3651
bin	2.86936e-05	3535
bin	2.87648e-05	3590
bin	2.8836e-05	3747
bin	2.89072e-05	3525
bin	2.89784e-05	3376
bin	2.90496e-05	3522
bin	2.91208e-05	3652
bin	2.9192e-05	3343
bin	2.92632e-05	3468
bin	2.93344e-05	3365
bin	2.94056e-05	3518
bin	2.94768e-05	3207
bin	2.9548e-05	3382
bin	2.96192e-05	3567
bin	2.96904e-05	3203
bin	2.97616e-05	3233
bin	2.98328e-05	3332
bin	2.9904e-05	3391
bin	2.99752e-05	3074
bin	3.00464e-05	3206
bin	3.01176e-05	3135
bin	3.01888e-05	3280
bin	3.026e-05	3059
bin	3.03312e-05	3152
bin	3.04024e-05	3355
bin	3.04736e-05	3126
bin	3.05448e-05	3033
bin	3.0616e-05	3265
bin	3.06872e-05	3335
bin	3.07584e-05	3050
bin	3.08296e-05	3195
bin	3.09008e-05	3067
bin	3.0972e-05	3192
bin	3.10432e-05	3031
bin	3.11144e-05	3083
bin	3.11856e-05	3137
bin	3.12568e-05	2929
bin	3.1328e-05	2885
bin	3.13992e-05	2927
bin	3.14704e-05	3105
bin	3.15416e-05	2846
bin	3.16128e-05	3010
bin	3.1684e-05	2885
bin	3.17552e-05	2910
bin	3.18264e-05	2840
bin	3.18976e-05	2895
bin	3.19688e-05	2948
bin	3.204e-05	2739
bin	3.21112e-05	2658
bin	3.21824e-05	2734
bin	3.22536e-05	2885
bin	3.23248e-05	2609
bin	3.2396e-05	2707
bin	3.24672e-05	2662
bin	3.25384e-05	2776
bin	3.26096e-05	2556
bin	3.26808e-05	2643
bin	3.2752e-05	2669
bin	3.28232e-05	2569
bin	3.28944e-05	2541
bin	3.29656e-05	2719
bin	3.30368e-05	2829
bin	3.3108e-05	2443
bin	3.31792e-05	2603
bin	3.32504e-05	2519
bin	3.33216e-05	2606
bin	3.33928e-05	2500
bin	3.3464e-05	2519
bin	3.35352e-05	2635
bin	3.36064e-05	2458
bin	3.36776e-05	2438
bin	3.37488e-05	2536
bin	3.382e-05	2477
bin	3.38912e-05	2376
bin	3.39624e-05	2445
bin	3.40336e-05	2438
bin	3.41048e-05	2497
bin	3.4176e-05	2335
bin	3.42472e-05	2456
bin	3.43184e-05	2504
bin	3.43896e-05	2297
bin	3.44608e-05	2186
bin	3.4532e-05	2451
bin	3.46032e-05	2376
bin	3.46744e-05	2230
bin	3.47456e-05	2269
bin	3.48168e-05	2302
bin	3.4888e-05	2255
bin	3.49592e-05	2104
bin	3.50304e-05	2306
bin	3.51016e-05	2250
bin	3.51728e-05	2129
bin	3.5244e-05	2096
bin	3.53152e-05	2276
bin	3.53864e-05	2287
bin	3.54576e-05	2173
bin	3.55288e-05	2143
bin	3.56e-05	659824
statistic Torus3d_bub.timer 	"Life Times"
field count 6291456
field mean 7.1607044123018e-05
field stddev 6.0448778504004e-05
field sum 450.51256739003
field sqrsum 0.055249194775157
field min 7.33332437e-07
field max 0.000732632333301
bin	-INF	0
bin	0	6506
bin	8.544e-07	32561
bin	1.7088e-06	49030
bin	2.5632e-06	40366
bin	3.4176e-06	49737
bin	4.272e-06	52739
bin	5.1264e-06	67593
bin	5.9808e-06	56778
bin	6.8352e-06	54275
bin	7.6896e-06	62889
bin	8.544e-06	75194
bin	9.3984e-06	73021
bin	1.02528e-05	66526
bin	1.11072e-05	92541
bin	1.19616e-05	78100
bin	1.2816e-05	70131
bin	1.36704e-05	67859
bin	1.45248e-05	65174
bin	1.53792e-05	69810
bin	1.62336e-05	66058
bin	1.7088e-05	68187
bin	1.79424e-05	69801
bin	1.87968e-05	65795
bin	1.96512e-05	63059
bin	2.05056e-05	71637
bin	2.136e-05	64499
bin	2.22144e-05	63642
bin	2.30688e-05	61136
bin	2.39232e-05	55446
bin	2.47776e-05	50654
bin	2.5632e-05	48370
bin	2.64864e-05	46835
bin	2.73408e-05	43784
bin	2.81952e-05	42528
bin	2.90496e-05	41059
bin	2.9904e-05	40132
bin	3.07584e-05	38032
bin	3.16128e-05	37441
bin	3.24672e-05	36226
bin	3.33216e-05	37008
bin	3.4176e-05	36173
bin	3.50304e-05	36972
bin	3.58848e-05	36438
bin	3.67392e-05	36808
bin	3.75936e-05	37440
bin	3.8448e-05	37556
bin	3.93024e-05	38747
bin	4.01568e-05	39263
bin	4.10112e-05	40292
bin	4.18656e-05	38939
bin	4.272e-05	38764
bin	4.35744e-05	37608
bin	4.44288e-05	36738
bin	4.52832e-05	36027
bin	4.61376e-05	35332
bin	4.6992e-05	34957
bin	4.78464e-05	34380
bin	4.87008e-05	34446
bin	4.95552e-05	33345
bin	5.04096e-05	32816
bin	5.1264e-05	32009
bin	5.21184e-05	31773
bin	5.29728e-05	30941
bin	5.38272e-05	30722
bin	5.46816e-05	31196
bin	5.5536e-05	30706
bin	5.63904e-05	30878
bin	5.72448e-05	30472
bin	5.80992e-05	31072
bin	5.89536e-05	31327
bin	5.9808e-05	31331
bin	6.06624e-05	31635
bin	6.15168e-05	31771
bin	6.23712e-05	31209
bin	6.32256e-05	31107
bin	6.408e-05	31006
bin	6.49344e-05	30566
bin	6.57888e-05	30087
bin	6.66432e-05	29761
bin	6.74976e-05	30065
bin	6.8352e-05	28950
bin	6.92064e-05	28723
bin	7.00608e-05	27973
bin	7.09152e-05	28031
bin	7.17696e-05	27313
bin	7.2624e-05	27116
bin	7.34784e-05	27415
bin	7.43328e-05	26690
bin	7.51872e-05	27093
bin	7.60416e-05	26884
bin	7.6896e-05	27251
bin	7.77504e-05	27231
bin	7.86048e-05	27186
bin	7.94592e-05	27520
bin	8.03136e-05	27452
bin	8.1168e-05	27713
bin	8.20224e-05	27363
bin	8.28768e-05	27409
bin	8.37312e-05	27129
bin	8.45856e-05	27089
bin	8.544e-05	26592
bin	8.62944e-05	26669
bin	8.71488e-05	26095
bin	8.80032e-05	25852
bin	8.88576e-05	25712
bin	8.9712e-05	25213
bin	9.05664e-05	24904
bin	9.14208e-05	24487
bin	9.22752e-05	24181
bin	9.31296e-05	23882
bin	9.3984e-05	23872
bin	9.48384e-05	23511
bin	9.56928e-05	23347
bin	9.65472e-05	23463
bin	9.74016e-05	22946
bin	9.8256e-05	23083
bin	9.91104e-05	22760
bin	9.99648e-05	22953
bin	0.0001008192	22636
bin	0.0001016736	22670
bin	0.000102528	22673
bin	0.0001033824	22307
bin	0.0001042368	21881
bin	0.0001050912	21719
bin	0.0001059456	21245
bin	0.0001068	20680
bin	0.0001076544	20560
bin	0.0001085088	20317
bin	0.0001093632	20018
bin	0.0001102176	19644
bin	0.000111072	19533
bin	0.0001119264	19199
bin	0.0001127808	18848
bin	0.0001136352	18482
bin	0.0001144896	18188
bin	0.000115344	18246
bin	0.0001161984	18016
bin	0.0001170528	18013
bin	0.0001179072	18060
bin	0.0001187616	17992
bin	0.000119616	17771
bin	0.0001204704	17787
bin	0.0001213248	17615
bin	0.0001221792	17371
bin	0.0001230336	17610
bin	0.000123888	17218
bin	0.0001247424	17114
bin	0.0001255968	16752
bin	0.0001264512	16619
bin	0.0001273056	16128
bin	0.00012816	15973
bin	0.0001290144	15920
bin	0.0001298688	15704
bin	0.0001307232	15528
bin	0.0001315776	15245
bin	0.000132432	15063
bin	0.0001332864	14934
bin	0.0001341408	14734
bin	0.0001349952	14484
bin	0.0001358496	14675
bin	0.000136704	14533
bin	0.0001375584	14239
bin	0.0001384128	14258
bin	0.0001392672	13946
bin	0.0001401216	14140
bin	0.000140976	13926
bin	0.0001418304	13911
bin	0.0001426848	13707
bin	0.0001435392	13575
bin	0.0001443936	13493
bin	0.000145248	13372
bin	0.0001461024	13104
bin	0.0001469568	12978
bin	0.0001478112	12910
bin	0.0001486656	12842
bin	0.00014952	12762
bin	0.0001503744	12430
bin	0.0001512288	12190
bin	0.0001520832	12079
bin	0.0001529376	11815
bin	0.000153792	11653
bin	0.0001546464	11426
bin	0.0001555008	11365
bin	0.0001563552	11195
bin	0.0001572096	11152
bin	0.000158064	11177
bin	0.0001589184	10986
bin	0.0001597728	10881
bin	0.0001606272	10629
bin	0.0001614816	10512
bin	0.000162336	10397
bin	0.0001631904	10280
bin	0.0001640448	10279
bin	0.0001648992	10142
bin	0.0001657536	9934
bin	0.000166608	9666
bin	0.0001674624	9558
bin	0.0001683168	9198
bin	0.0001691712	9074
bin	0.0001700256	8929
bin	0.00017088	8878
bin	0.0001717344	8694
bin	0.0001725888	8397
bin	0.0001734432	8185
bin	0.0001742976	8071
bin	0.000175152	7845
bin	0.0001760064	7972
bin	0.0001768608	7855
bin	0.0001777152	7821
bin	0.0001785696	7554
bin	0.000179424	7593
bin	0.0001802784	7372
bin	0.0001811328	7361
bin	0.0001819872	7158
bin	0.0001828416	7054
bin	0.000183696	6979
bin	0.0001845504	6898
bin	0.0001854048	6824
bin	0.0001862592	6614
bin	0.0001871136	6509
bin	0.000187968	6357
bin	0.0001888224	6185
bin	0.0001896768	6015
bin	0.0001905312	5992
bin	0.0001913856	5762
bin	0.00019224	5697
bin	0.0001930944	5471
bin	0.0001939488	5410
bin	0.0001948032	5341
bin	0.0001956576	5279
bin	0.000196512	5269
bin	0.0001973664	5092
bin	0.0001982208	5024
bin	0.0001990752	4944
bin	0.0001999296	4784
bin	0.000200784	4636
bin	0.0002016384	4752
bin	0.0002024928	4541
bin	0.0002033472	4596
bin	0.0002042016	4546
bin	0.000205056	4459
bin	0.0002059104	4309
bin	0.0002067648	4181
bin	0.0002076192	4051
bin	0.0002084736	3992
bin	0.000209328	3859
bin	0.0002101824	3792
bin	0.0002110368	3755
bin	0.0002118912	3641
bin	0.0002127456	3647
bin	0.0002136	3367
bin	0.0002144544	3371
bin	0.0002153088	3216
bin	0.0002161632	3109
bin	0.0002170176	3116
bin	0.000217872	3095
bin	0.0002187264	2969
bin	0.0002195808	3065
bin	0.0002204352	2852
bin	0.0002212896	2880
bin	0.000222144	2799
bin	0.0002229984	2886
bin	0.0002238528	2736
bin	0.0002247072	2681
bin	0.0002255616	2676
bin	0.000226416	2611
bin	0.0002272704	2565
bin	0.0002281248	2446
bin	0.0002289792	2474
bin	0.0002298336	2405
bin	0.000230688	2285
bin	0.0002315424	2257
bin	0.0002323968	2204
bin	0.0002332512	2126
bin	0.0002341056	2079
bin	0.00023496	2021
bin	0.0002358144	1970
bin	0.0002366688	1836
bin	0.0002375232	1778
bin	0.0002383776	1883
bin	0.000239232	1751
bin	0.0002400864	1793
bin	0.0002409408	1705
bin	0.0002417952	1716
bin	0.0002426496	1707
bin	0.000243504	1695
bin	0.0002443584	1712
bin	0.0002452128	1627
bin	0.0002460672	1591
bin	0.0002469216	1570
bin	0.000247776	1587
bin	0.0002486304	1537
bin	0.0002494848	1480
bin	0.0002503392	1371
bin	0.0002511936	1389
bin	0.000252048	1350
bin	0.0002529024	1299
bin	0.0002537568	1282
bin	0.0002546112	1239
bin	0.0002554656	1241
bin	0.00025632	1201
bin	0.0002571744	1128
bin	0.0002580288	1090
bin	0.0002588832	1100
bin	0.0002597376	1085
bin	0.000260592	1083
bin	0.0002614464	1035
bin	0.0002623008	987
bin	0.0002631552	997
bin	0.0002640096	1012
bin	0.000264864	1015
bin	0.0002657184	952
bin	0.0002665728	979
bin	0.0002674272	936
bin	0.0002682816	899
bin	0.000269136	922
bin	0.0002699904	892
bin	0.0002708448	820
bin	0.0002716992	835
bin	0.0002725536	803
bin	0.000273408	824
bin	0.0002742624	812
bin	0.0002751168	752
bin	0.0002759712	721
bin	0.0002768256	655
bin	0.00027768	634
bin	0.0002785344	661
bin	0.0002793888	714
bin	0.0002802432	670
bin	0.0002810976	662
bin	0.000281952	674
bin	0.0002828064	630
bin	0.0002836608	617
bin	0.0002845152	620
bin	0.0002853696	572
bin	0.000286224	591
bin	0.0002870784	599
bin	0.0002879328	596
bin	0.0002887872	595
bin	0.0002896416	574
bin	0.000290496	540
bin	0.0002913504	500
bin	0.0002922048	483
bin	0.0002930592	488
bin	0.0002939136	516
bin	0.000294768	507
bin	0.0002956224	474
bin	0.0002964768	519
bin	0.0002973312	484
bin	0.0002981856	492
bin	0.00029904	458
bin	0.0002998944	467
bin	0.0003007488	446
bin	0.0003016032	428
bin	0.0003024576	434
bin	0.000303312	445
bin	0.0003041664	423
bin	0.0003050208	434
bin	0.0003058752	435
bin	0.0003067296	422
bin	0.000307584	453
bin	0.0003084384	453
bin	0.0003092928	423
bin	0.0003101472	420
bin	0.0003110016	406
bin	0.000311856	376
bin	0.0003127104	359
bin	0.0003135648	363
bin	0.0003144192	372
bin	0.0003152736	389
bin	0.000316128	328
bin	0.0003169824	330
bin	0.0003178368	333
bin	0.0003186912	380
bin	0.0003195456	337
bin	0.0003204	334
bin	0.0003212544	321
bin	0.0003221088	293
bin	0.0003229632	275
bin	0.0003238176	255
bin	0.000324672	287
bin	0.0003255264	286
bin	0.0003263808	260
bin	0.0003272352	268
bin	0.0003280896	239
bin	0.000328944	239
bin	0.0003297984	250
bin	0.0003306528	245
bin	0.0003315072	240
bin	0.0003323616	227
bin	0.000333216	258
bin	0.0003340704	230
bin	0.0003349248	219
bin	0.0003357792	204
bin	0.0003366336	195
bin	0.000337488	227
bin	0.0003383424	208
bin	0.0003391968	201
bin	0.0003400512	199
bin	0.0003409056	166
bin	0.00034176	183
bin	0.0003426144	185
bin	0.0003434688	183
bin	0.0003443232	164
bin	0.0003451776	173
bin	0.000346032	172
bin	0.0003468864	154
bin	0.0003477408	188
bin	0.0003485952	167
bin	0.0003494496	183
bin	0.000350304	177
bin	0.0003511584	153
bin	0.0003520128	146
bin	0.0003528672	139
bin	0.0003537216	132
bin	0.000354576	136
bin	0.0003554304	126
bin	0.0003562848	126
bin	0.0003571392	104
bin	0.0003579936	138
bin	0.000358848	137
bin	0.0003597024	142
bin	0.0003605568	166
bin	0.0003614112	132
bin	0.0003622656	119
bin	0.00036312	127
bin	0.0003639744	113
bin	0.0003648288	114
bin	0.0003656832	130
bin	0.0003665376	117
bin	0.000367392	106
bin	0.0003682464	122
bin	0.0003691008	105
bin	0.0003699552	88
bin	0.0003708096	106
bin	0.000371664	79
bin	0.0003725184	68
bin	0.0003733728	77
bin	0.0003742272	69
bin	0.0003750816	68
bin	0.000375936	72
bin	0.0003767904	74
bin	0.0003776448	54
bin	0.0003784992	64
bin	0.0003793536	74
bin	0.000380208	52
bin	0.0003810624	57
bin	0.0003819168	61
bin	0.0003827712	60
bin	0.0003836256	54
bin	0.00038448	58
bin	0.0003853344	63
bin	0.0003861888	56
bin	0.0003870432	50
bin	0.0003878976	52
bin	0.000388752	57
bin	0.0003896064	42
bin	0.0003904608	36
bin	0.0003913152	35
bin	0.0003921696	21
bin	0.000393024	27
bin	0.0003938784	43
bin	0.0003947328	40
bin	0.0003955872	41
bin	0.0003964416	28
bin	0.000397296	31
bin	0.0003981504	22
bin	0.0003990048	26
bin	0.0003998592	36
bin	0.0004007136	28
bin	0.000401568	28
bin	0.0004024224	25
bin	0.0004032768	31
bin	0.0004041312	33
bin	0.0004049856	31
bin	0.00040584	47
bin	0.0004066944	40
bin	0.0004075488	41
bin	0.0004084032	30
bin	0.0004092576	24
bin	0.000410112	23
bin	0.0004109664	24
bin	0.0004118208	33
bin	0.0004126752	55
bin	0.0004135296	34
bin	0.000414384	35
bin	0.0004152384	38
bin	0.0004160928	28
bin	0.0004169472	19
bin	0.0004178016	15
bin	0.000418656	23
bin	0.0004195104	43
bin	0.0004203648	41
bin	0.0004212192	33
bin	0.0004220736	27
bin	0.000422928	22
bin	0.0004237824	28
bin	0.0004246368	29
bin	0.0004254912	20
bin	0.0004263456	14
bin	0.0004272	512
