version 2
run Butterfly-81-20120709-12:09:55-22832
attr alg 1
attr buf 8
attr configname Butterfly
attr datetime 20120709-12:09:55
attr delta 1.8
attr experiment Butterfly
attr ext true
attr inifile altro.ini
attr iterationvars "$buf=8, $ext=true, $ofedge=2, $delta=1.8, $alg=1"
attr iterationvars2 "$buf=8, $ext=true, $ofedge=2, $delta=1.8, $alg=1, $repetition=0"
attr measurement "$buf=8, $ext=true, $ofedge=2, $delta=1.8, $alg=1"
attr network Torus3d_bub
attr ofedge 2
attr processid 22832
attr repetition 0
attr replication #0
attr resultdir altro-results
attr runnumber 81
attr seedset 81

scalar . 	alg 	1
scalar . 	buf 	8
scalar . 	delta 	1.8
scalar . 	ofedge 	2
scalar Torus3d_bub.timer 	#endTime 	0.001003994998454
scalar Torus3d_bub.timer 	#totalHops 	46712441
scalar Torus3d_bub.timer 	#totalPacks 	6291456
scalar Torus3d_bub.timer 	#totalDerouted 	3921264
scalar Torus3d_bub.timer 	#totalOutFlanked 	3921264
scalar Torus3d_bub.timer 	#totalCQRed 	0
scalar Torus3d_bub.timer 	#LB 	0.000786432
scalar Torus3d_bub.timer 	#ratio 	0.78330270689693
statistic Torus3d_bub.timer 	"Hop Times"
field count 6291456
field mean 5.0666209099718e-05
field stddev 7.110169035047e-05
field sum 318.76422523768
field sqrsum 0.047956713401357
field min 5.4466653e-07
field max 0.000655418332913
bin	-INF	0
bin	0	0
bin	7.12e-08	0
bin	1.424e-07	0
bin	2.136e-07	0
bin	2.848e-07	0
bin	3.56e-07	0
bin	4.272e-07	0
bin	4.984e-07	2056
bin	5.696e-07	2061
bin	6.408e-07	2107
bin	7.12e-07	7259
bin	7.832e-07	1118
bin	8.544e-07	3223
bin	9.256e-07	10426
bin	9.968e-07	2606
bin	1.068e-06	7397
bin	1.1392e-06	7966
bin	1.2104e-06	12026
bin	1.2816e-06	4312
bin	1.3528e-06	15582
bin	1.424e-06	5825
bin	1.4952e-06	14845
bin	1.5664e-06	6917
bin	1.6376e-06	12124
bin	1.7088e-06	13147
bin	1.78e-06	12570
bin	1.8512e-06	10225
bin	1.9224e-06	12743
bin	1.9936e-06	19169
bin	2.0648e-06	14407
bin	2.136e-06	12679
bin	2.2072e-06	5782
bin	2.2784e-06	16816
bin	2.3496e-06	9035
bin	2.4208e-06	11091
bin	2.492e-06	14095
bin	2.5632e-06	19345
bin	2.6344e-06	8489
bin	2.7056e-06	13572
bin	2.7768e-06	12267
bin	2.848e-06	11710
bin	2.9192e-06	8463
bin	2.9904e-06	6388
bin	3.0616e-06	12416
bin	3.1328e-06	7340
bin	3.204e-06	6330
bin	3.2752e-06	11692
bin	3.3464e-06	6633
bin	3.4176e-06	6882
bin	3.4888e-06	7034
bin	3.56e-06	10723
bin	3.6312e-06	6782
bin	3.7024e-06	6642
bin	3.7736e-06	6668
bin	3.8448e-06	13232
bin	3.916e-06	6386
bin	3.9872e-06	6821
bin	4.0584e-06	11958
bin	4.1296e-06	6243
bin	4.2008e-06	6164
bin	4.272e-06	6325
bin	4.3432e-06	10526
bin	4.4144e-06	6362
bin	4.4856e-06	6921
bin	4.5568e-06	7108
bin	4.628e-06	10999
bin	4.6992e-06	6787
bin	4.7704e-06	8586
bin	4.8416e-06	10346
bin	4.9128e-06	6242
bin	4.984e-06	6555
bin	5.0552e-06	6243
bin	5.1264e-06	10086
bin	5.1976e-06	6332
bin	5.2688e-06	6084
bin	5.34e-06	6426
bin	5.4112e-06	10308
bin	5.4824e-06	6254
bin	5.5536e-06	6277
bin	5.6248e-06	10234
bin	5.696e-06	6008
bin	5.7672e-06	6206
bin	5.8384e-06	6265
bin	5.9096e-06	12318
bin	5.9808e-06	6328
bin	6.052e-06	6241
bin	6.1232e-06	6522
bin	6.1944e-06	10580
bin	6.2656e-06	6492
bin	6.3368e-06	6591
bin	6.408e-06	10548
bin	6.4792e-06	6298
bin	6.5504e-06	6668
bin	6.6216e-06	6641
bin	6.6928e-06	10527
bin	6.764e-06	6677
bin	6.8352e-06	6640
bin	6.9064e-06	6781
bin	6.9776e-06	10701
bin	7.0488e-06	6528
bin	7.12e-06	6565
bin	7.1912e-06	10561
bin	7.2624e-06	6327
bin	7.3336e-06	6454
bin	7.4048e-06	6635
bin	7.476e-06	10627
bin	7.5472e-06	6551
bin	7.6184e-06	6566
bin	7.6896e-06	6522
bin	7.7608e-06	10552
bin	7.832e-06	6342
bin	7.9032e-06	6702
bin	7.9744e-06	10582
bin	8.0456e-06	6576
bin	8.1168e-06	6552
bin	8.188e-06	6594
bin	8.2592e-06	8819
bin	8.3304e-06	6634
bin	8.4016e-06	6711
bin	8.4728e-06	6717
bin	8.544e-06	10807
bin	8.6152e-06	6734
bin	8.6864e-06	7084
bin	8.7576e-06	10960
bin	8.8288e-06	6726
bin	8.9e-06	6751
bin	8.9712e-06	6786
bin	9.0424e-06	10674
bin	9.1136e-06	6726
bin	9.1848e-06	6697
bin	9.256e-06	6724
bin	9.3272e-06	8709
bin	9.3984e-06	6598
bin	9.4696e-06	6764
bin	9.5408e-06	10798
bin	9.612e-06	6794
bin	9.6832e-06	6548
bin	9.7544e-06	6778
bin	9.8256e-06	10694
bin	9.8968e-06	6587
bin	9.968e-06	6805
bin	1.00392e-05	6816
bin	1.01104e-05	6881
bin	1.01816e-05	6722
bin	1.02528e-05	6797
bin	1.0324e-05	10771
bin	1.03952e-05	6699
bin	1.04664e-05	6553
bin	1.05376e-05	7004
bin	1.06088e-05	8789
bin	1.068e-05	6733
bin	1.07512e-05	6936
bin	1.08224e-05	6973
bin	1.08936e-05	8961
bin	1.09648e-05	6993
bin	1.1036e-05	6959
bin	1.11072e-05	8798
bin	1.11784e-05	6804
bin	1.12496e-05	6930
bin	1.13208e-05	6850
bin	1.1392e-05	10929
bin	1.14632e-05	6850
bin	1.15344e-05	7013
bin	1.16056e-05	6892
bin	1.16768e-05	11149
bin	1.1748e-05	6873
bin	1.18192e-05	7029
bin	1.18904e-05	10917
bin	1.19616e-05	6983
bin	1.20328e-05	7057
bin	1.2104e-05	7095
bin	1.21752e-05	10990
bin	1.22464e-05	6926
bin	1.23176e-05	7053
bin	1.23888e-05	6729
bin	1.246e-05	11183
bin	1.25312e-05	6912
bin	1.26024e-05	7306
bin	1.26736e-05	8960
bin	1.27448e-05	6970
bin	1.2816e-05	6955
bin	1.28872e-05	7084
bin	1.29584e-05	6827
bin	1.30296e-05	6961
bin	1.31008e-05	7131
bin	1.3172e-05	7055
bin	1.32432e-05	7049
bin	1.33144e-05	6984
bin	1.33856e-05	7134
bin	1.34568e-05	7037
bin	1.3528e-05	6969
bin	1.35992e-05	6991
bin	1.36704e-05	7082
bin	1.37416e-05	6922
bin	1.38128e-05	6950
bin	1.3884e-05	7123
bin	1.39552e-05	6891
bin	1.40264e-05	7095
bin	1.40976e-05	7138
bin	1.41688e-05	7327
bin	1.424e-05	6993
bin	1.43112e-05	7012
bin	1.43824e-05	7118
bin	1.44536e-05	7134
bin	1.45248e-05	7165
bin	1.4596e-05	7100
bin	1.46672e-05	7206
bin	1.47384e-05	6968
bin	1.48096e-05	7305
bin	1.48808e-05	7060
bin	1.4952e-05	7200
bin	1.50232e-05	7024
bin	1.50944e-05	7033
bin	1.51656e-05	7076
bin	1.52368e-05	7111
bin	1.5308e-05	7031
bin	1.53792e-05	6918
bin	1.54504e-05	7177
bin	1.55216e-05	6997
bin	1.55928e-05	7033
bin	1.5664e-05	7190
bin	1.57352e-05	7204
bin	1.58064e-05	7130
bin	1.58776e-05	7211
bin	1.59488e-05	7368
bin	1.602e-05	7319
bin	1.60912e-05	7265
bin	1.61624e-05	7163
bin	1.62336e-05	7319
bin	1.63048e-05	7001
bin	1.6376e-05	7203
bin	1.64472e-05	7173
bin	1.65184e-05	7430
bin	1.65896e-05	7035
bin	1.66608e-05	7366
bin	1.6732e-05	7098
bin	1.68032e-05	7463
bin	1.68744e-05	7430
bin	1.69456e-05	7202
bin	1.70168e-05	7486
bin	1.7088e-05	7078
bin	1.71592e-05	7552
bin	1.72304e-05	7373
bin	1.73016e-05	7453
bin	1.73728e-05	7379
bin	1.7444e-05	7550
bin	1.75152e-05	7296
bin	1.75864e-05	7541
bin	1.76576e-05	7397
bin	1.77288e-05	7375
bin	1.78e-05	7643
bin	1.78712e-05	7160
bin	1.79424e-05	7375
bin	1.80136e-05	7114
bin	1.80848e-05	7501
bin	1.8156e-05	7326
bin	1.82272e-05	7557
bin	1.82984e-05	7258
bin	1.83696e-05	7595
bin	1.84408e-05	7650
bin	1.8512e-05	7227
bin	1.85832e-05	7840
bin	1.86544e-05	7264
bin	1.87256e-05	7493
bin	1.87968e-05	7360
bin	1.8868e-05	7589
bin	1.89392e-05	7252
bin	1.90104e-05	7564
bin	1.90816e-05	7356
bin	1.91528e-05	7581
bin	1.9224e-05	7438
bin	1.92952e-05	7438
bin	1.93664e-05	7780
bin	1.94376e-05	7327
bin	1.95088e-05	7547
bin	1.958e-05	7429
bin	1.96512e-05	7530
bin	1.97224e-05	7091
bin	1.97936e-05	7415
bin	1.98648e-05	7555
bin	1.9936e-05	7586
bin	2.00072e-05	7410
bin	2.00784e-05	7436
bin	2.01496e-05	7524
bin	2.02208e-05	7449
bin	2.0292e-05	7583
bin	2.03632e-05	7409
bin	2.04344e-05	7598
bin	2.05056e-05	7460
bin	2.05768e-05	7580
bin	2.0648e-05	7458
bin	2.07192e-05	7546
bin	2.07904e-05	7387
bin	2.08616e-05	7381
bin	2.09328e-05	7568
bin	2.1004e-05	7387
bin	2.10752e-05	7666
bin	2.11464e-05	7508
bin	2.12176e-05	7621
bin	2.12888e-05	7313
bin	2.136e-05	7495
bin	2.14312e-05	7637
bin	2.15024e-05	7588
bin	2.15736e-05	7262
bin	2.16448e-05	7380
bin	2.1716e-05	7578
bin	2.17872e-05	7417
bin	2.18584e-05	7588
bin	2.19296e-05	7428
bin	2.20008e-05	7643
bin	2.2072e-05	7441
bin	2.21432e-05	7741
bin	2.22144e-05	7517
bin	2.22856e-05	7726
bin	2.23568e-05	7659
bin	2.2428e-05	7472
bin	2.24992e-05	7668
bin	2.25704e-05	7567
bin	2.26416e-05	7606
bin	2.27128e-05	7682
bin	2.2784e-05	7555
bin	2.28552e-05	7348
bin	2.29264e-05	7413
bin	2.29976e-05	7493
bin	2.30688e-05	7528
bin	2.314e-05	7595
bin	2.32112e-05	7435
bin	2.32824e-05	7606
bin	2.33536e-05	7478
bin	2.34248e-05	7608
bin	2.3496e-05	7512
bin	2.35672e-05	7602
bin	2.36384e-05	7427
bin	2.37096e-05	7583
bin	2.37808e-05	7548
bin	2.3852e-05	7371
bin	2.39232e-05	7399
bin	2.39944e-05	7307
bin	2.40656e-05	7571
bin	2.41368e-05	7407
bin	2.4208e-05	7550
bin	2.42792e-05	7520
bin	2.43504e-05	7546
bin	2.44216e-05	7419
bin	2.44928e-05	7686
bin	2.4564e-05	7711
bin	2.46352e-05	7660
bin	2.47064e-05	7422
bin	2.47776e-05	7562
bin	2.48488e-05	7847
bin	2.492e-05	7359
bin	2.49912e-05	7507
bin	2.50624e-05	7434
bin	2.51336e-05	7589
bin	2.52048e-05	7303
bin	2.5276e-05	7673
bin	2.53472e-05	7499
bin	2.54184e-05	7442
bin	2.54896e-05	7475
bin	2.55608e-05	7664
bin	2.5632e-05	7703
bin	2.57032e-05	7357
bin	2.57744e-05	7555
bin	2.58456e-05	7659
bin	2.59168e-05	7733
bin	2.5988e-05	7440
bin	2.60592e-05	7554
bin	2.61304e-05	7459
bin	2.62016e-05	7577
bin	2.62728e-05	7672
bin	2.6344e-05	7422
bin	2.64152e-05	7840
bin	2.64864e-05	7519
bin	2.65576e-05	7696
bin	2.66288e-05	7644
bin	2.67e-05	7619
bin	2.67712e-05	7449
bin	2.68424e-05	7711
bin	2.69136e-05	7691
bin	2.69848e-05	7616
bin	2.7056e-05	7562
bin	2.71272e-05	7515
bin	2.71984e-05	7893
bin	2.72696e-05	7649
bin	2.73408e-05	7901
bin	2.7412e-05	7705
bin	2.74832e-05	7651
bin	2.75544e-05	7581
bin	2.76256e-05	7877
bin	2.76968e-05	7800
bin	2.7768e-05	7751
bin	2.78392e-05	7774
bin	2.79104e-05	7726
bin	2.79816e-05	7815
bin	2.80528e-05	7556
bin	2.8124e-05	7518
bin	2.81952e-05	7618
bin	2.82664e-05	7632
bin	2.83376e-05	7540
bin	2.84088e-05	7757
bin	2.848e-05	7861
bin	2.85512e-05	7675
bin	2.86224e-05	7798
bin	2.86936e-05	7657
bin	2.87648e-05	7970
bin	2.8836e-05	7537
bin	2.89072e-05	7701
bin	2.89784e-05	7576
bin	2.90496e-05	7753
bin	2.91208e-05	7571
bin	2.9192e-05	7776
bin	2.92632e-05	7742
bin	2.93344e-05	7659
bin	2.94056e-05	7747
bin	2.94768e-05	7439
bin	2.9548e-05	7878
bin	2.96192e-05	7476
bin	2.96904e-05	7560
bin	2.97616e-05	7736
bin	2.98328e-05	7648
bin	2.9904e-05	7462
bin	2.99752e-05	7646
bin	3.00464e-05	7637
bin	3.01176e-05	7721
bin	3.01888e-05	7888
bin	3.026e-05	7585
bin	3.03312e-05	7947
bin	3.04024e-05	7573
bin	3.04736e-05	7819
bin	3.05448e-05	7683
bin	3.0616e-05	7621
bin	3.06872e-05	7478
bin	3.07584e-05	7809
bin	3.08296e-05	7818
bin	3.09008e-05	7720
bin	3.0972e-05	7687
bin	3.10432e-05	7559
bin	3.11144e-05	7853
bin	3.11856e-05	7452
bin	3.12568e-05	7772
bin	3.1328e-05	7676
bin	3.13992e-05	7734
bin	3.14704e-05	7528
bin	3.15416e-05	7721
bin	3.16128e-05	7692
bin	3.1684e-05	7701
bin	3.17552e-05	7678
bin	3.18264e-05	7497
bin	3.18976e-05	7783
bin	3.19688e-05	7416
bin	3.204e-05	7671
bin	3.21112e-05	7573
bin	3.21824e-05	7535
bin	3.22536e-05	7376
bin	3.23248e-05	7567
bin	3.2396e-05	7615
bin	3.24672e-05	7286
bin	3.25384e-05	7513
bin	3.26096e-05	7446
bin	3.26808e-05	7513
bin	3.2752e-05	7252
bin	3.28232e-05	7393
bin	3.28944e-05	7450
bin	3.29656e-05	7436
bin	3.30368e-05	7139
bin	3.3108e-05	7557
bin	3.31792e-05	7444
bin	3.32504e-05	7341
bin	3.33216e-05	7377
bin	3.33928e-05	7164
bin	3.3464e-05	7462
bin	3.35352e-05	7163
bin	3.36064e-05	7268
bin	3.36776e-05	7155
bin	3.37488e-05	7183
bin	3.382e-05	6939
bin	3.38912e-05	7263
bin	3.39624e-05	7338
bin	3.40336e-05	7071
bin	3.41048e-05	7233
bin	3.4176e-05	6953
bin	3.42472e-05	7369
bin	3.43184e-05	6994
bin	3.43896e-05	7205
bin	3.44608e-05	7022
bin	3.4532e-05	6929
bin	3.46032e-05	6784
bin	3.46744e-05	7008
bin	3.47456e-05	7088
bin	3.48168e-05	6738
bin	3.4888e-05	6969
bin	3.49592e-05	6665
bin	3.50304e-05	6854
bin	3.51016e-05	6544
bin	3.51728e-05	6799
bin	3.5244e-05	6649
bin	3.53152e-05	6545
bin	3.53864e-05	6406
bin	3.54576e-05	6493
bin	3.55288e-05	6547
bin	3.56e-05	2506761
statistic Torus3d_bub.timer 	"Life Times"
field count 6291456
field mean 0.00022857834807994
field stddev 0.00014270031007385
field sum 1438.0906194976
field sqrsum 0.45683165764437
field min 7.33332997e-07
field max 0.000801663665451
bin	-INF	0
bin	0	4146
bin	8.544e-07	19158
bin	1.7088e-06	27842
bin	2.5632e-06	20139
bin	3.4176e-06	18457
bin	4.272e-06	24963
bin	5.1264e-06	30372
bin	5.9808e-06	25523
bin	6.8352e-06	21699
bin	7.6896e-06	26000
bin	8.544e-06	24100
bin	9.3984e-06	21169
bin	1.02528e-05	26052
bin	1.11072e-05	34722
bin	1.19616e-05	32292
bin	1.2816e-05	16624
bin	1.36704e-05	16261
bin	1.45248e-05	12016
bin	1.53792e-05	19748
bin	1.62336e-05	16435
bin	1.7088e-05	17254
bin	1.79424e-05	9209
bin	1.87968e-05	10684
bin	1.96512e-05	11450
bin	2.05056e-05	9735
bin	2.136e-05	11676
bin	2.22144e-05	12074
bin	2.30688e-05	11534
bin	2.39232e-05	13223
bin	2.47776e-05	11134
bin	2.5632e-05	10858
bin	2.64864e-05	11760
bin	2.73408e-05	12191
bin	2.81952e-05	11389
bin	2.90496e-05	10828
bin	2.9904e-05	11064
bin	3.07584e-05	10872
bin	3.16128e-05	10855
bin	3.24672e-05	10810
bin	3.33216e-05	11494
bin	3.4176e-05	11006
bin	3.50304e-05	11341
bin	3.58848e-05	11324
bin	3.67392e-05	12168
bin	3.75936e-05	12111
bin	3.8448e-05	11727
bin	3.93024e-05	11902
bin	4.01568e-05	11556
bin	4.10112e-05	11749
bin	4.18656e-05	11457
bin	4.272e-05	11819
bin	4.35744e-05	11309
bin	4.44288e-05	11377
bin	4.52832e-05	11001
bin	4.61376e-05	11217
bin	4.6992e-05	11144
bin	4.78464e-05	11024
bin	4.87008e-05	10813
bin	4.95552e-05	11013
bin	5.04096e-05	10870
bin	5.1264e-05	10657
bin	5.21184e-05	10901
bin	5.29728e-05	10811
bin	5.38272e-05	10779
bin	5.46816e-05	10646
bin	5.5536e-05	10828
bin	5.63904e-05	10698
bin	5.72448e-05	10507
bin	5.80992e-05	10568
bin	5.89536e-05	10600
bin	5.9808e-05	10801
bin	6.06624e-05	10766
bin	6.15168e-05	10944
bin	6.23712e-05	10965
bin	6.32256e-05	10972
bin	6.408e-05	11171
bin	6.49344e-05	11105
bin	6.57888e-05	11071
bin	6.66432e-05	10978
bin	6.74976e-05	11287
bin	6.8352e-05	10915
bin	6.92064e-05	11011
bin	7.00608e-05	10862
bin	7.09152e-05	10951
bin	7.17696e-05	10858
bin	7.2624e-05	10798
bin	7.34784e-05	10855
bin	7.43328e-05	10816
bin	7.51872e-05	10836
bin	7.60416e-05	10617
bin	7.6896e-05	10858
bin	7.77504e-05	10598
bin	7.86048e-05	10716
bin	7.94592e-05	10707
bin	8.03136e-05	10736
bin	8.1168e-05	10741
bin	8.20224e-05	10696
bin	8.28768e-05	10435
bin	8.37312e-05	10291
bin	8.45856e-05	10217
bin	8.544e-05	10357
bin	8.62944e-05	10316
bin	8.71488e-05	10166
bin	8.80032e-05	9964
bin	8.88576e-05	10204
bin	8.9712e-05	10044
bin	9.05664e-05	9865
bin	9.14208e-05	9842
bin	9.22752e-05	9880
bin	9.31296e-05	9926
bin	9.3984e-05	9719
bin	9.48384e-05	9908
bin	9.56928e-05	9972
bin	9.65472e-05	10051
bin	9.74016e-05	9959
bin	9.8256e-05	9807
bin	9.91104e-05	9932
bin	9.99648e-05	9951
bin	0.0001008192	10067
bin	0.0001016736	9854
bin	0.000102528	9973
bin	0.0001033824	10110
bin	0.0001042368	10172
bin	0.0001050912	10332
bin	0.0001059456	10074
bin	0.0001068	9963
bin	0.0001076544	9955
bin	0.0001085088	10179
bin	0.0001093632	10207
bin	0.0001102176	10123
bin	0.000111072	10198
bin	0.0001119264	10071
bin	0.0001127808	10019
bin	0.0001136352	10179
bin	0.0001144896	10145
bin	0.000115344	10172
bin	0.0001161984	10149
bin	0.0001170528	10209
bin	0.0001179072	10160
bin	0.0001187616	10085
bin	0.000119616	10099
bin	0.0001204704	10125
bin	0.0001213248	10253
bin	0.0001221792	10353
bin	0.0001230336	10350
bin	0.000123888	10286
bin	0.0001247424	10510
bin	0.0001255968	10416
bin	0.0001264512	10485
bin	0.0001273056	10403
bin	0.00012816	10391
bin	0.0001290144	10397
bin	0.0001298688	10522
bin	0.0001307232	10566
bin	0.0001315776	10654
bin	0.000132432	10474
bin	0.0001332864	10445
bin	0.0001341408	10526
bin	0.0001349952	10604
bin	0.0001358496	10598
bin	0.000136704	10664
bin	0.0001375584	10794
bin	0.0001384128	10750
bin	0.0001392672	10993
bin	0.0001401216	11002
bin	0.000140976	11115
bin	0.0001418304	11154
bin	0.0001426848	11132
bin	0.0001435392	11055
bin	0.0001443936	11040
bin	0.000145248	11083
bin	0.0001461024	11002
bin	0.0001469568	11057
bin	0.0001478112	10904
bin	0.0001486656	11016
bin	0.00014952	11146
bin	0.0001503744	11078
bin	0.0001512288	11122
bin	0.0001520832	11262
bin	0.0001529376	11176
bin	0.000153792	11242
bin	0.0001546464	11407
bin	0.0001555008	11309
bin	0.0001563552	11302
bin	0.0001572096	11249
bin	0.000158064	11383
bin	0.0001589184	11289
bin	0.0001597728	11502
bin	0.0001606272	11474
bin	0.0001614816	11517
bin	0.000162336	11529
bin	0.0001631904	11441
bin	0.0001640448	11173
bin	0.0001648992	11338
bin	0.0001657536	11424
bin	0.000166608	11504
bin	0.0001674624	11391
bin	0.0001683168	11449
bin	0.0001691712	11440
bin	0.0001700256	11589
bin	0.00017088	11457
bin	0.0001717344	11539
bin	0.0001725888	11609
bin	0.0001734432	11701
bin	0.0001742976	11625
bin	0.000175152	11594
bin	0.0001760064	11561
bin	0.0001768608	11533
bin	0.0001777152	11773
bin	0.0001785696	11793
bin	0.000179424	11526
bin	0.0001802784	11637
bin	0.0001811328	11592
bin	0.0001819872	11671
bin	0.0001828416	11576
bin	0.000183696	11514
bin	0.0001845504	11605
bin	0.0001854048	11717
bin	0.0001862592	11590
bin	0.0001871136	11532
bin	0.000187968	11578
bin	0.0001888224	11673
bin	0.0001896768	11521
bin	0.0001905312	11411
bin	0.0001913856	11538
bin	0.00019224	11413
bin	0.0001930944	11619
bin	0.0001939488	11677
bin	0.0001948032	11667
bin	0.0001956576	11570
bin	0.000196512	11596
bin	0.0001973664	11675
bin	0.0001982208	11603
bin	0.0001990752	11692
bin	0.0001999296	11434
bin	0.000200784	11465
bin	0.0002016384	11500
bin	0.0002024928	11560
bin	0.0002033472	11610
bin	0.0002042016	11777
bin	0.000205056	11706
bin	0.0002059104	11747
bin	0.0002067648	11712
bin	0.0002076192	11690
bin	0.0002084736	11763
bin	0.000209328	11737
bin	0.0002101824	11747
bin	0.0002110368	11688
bin	0.0002118912	11782
bin	0.0002127456	11798
bin	0.0002136	11910
bin	0.0002144544	11875
bin	0.0002153088	11848
bin	0.0002161632	11747
bin	0.0002170176	11907
bin	0.000217872	11960
bin	0.0002187264	11904
bin	0.0002195808	11764
bin	0.0002204352	11924
bin	0.0002212896	12078
bin	0.000222144	12052
bin	0.0002229984	11921
bin	0.0002238528	11957
bin	0.0002247072	11959
bin	0.0002255616	11958
bin	0.000226416	11775
bin	0.0002272704	12096
bin	0.0002281248	11916
bin	0.0002289792	11877
bin	0.0002298336	11836
bin	0.000230688	11812
bin	0.0002315424	11930
bin	0.0002323968	11966
bin	0.0002332512	11909
bin	0.0002341056	11933
bin	0.00023496	11886
bin	0.0002358144	11902
bin	0.0002366688	11942
bin	0.0002375232	11833
bin	0.0002383776	12030
bin	0.000239232	11889
bin	0.0002400864	12031
bin	0.0002409408	11781
bin	0.0002417952	11939
bin	0.0002426496	12034
bin	0.000243504	11784
bin	0.0002443584	11972
bin	0.0002452128	12066
bin	0.0002460672	11923
bin	0.0002469216	12005
bin	0.000247776	12080
bin	0.0002486304	11943
bin	0.0002494848	11819
bin	0.0002503392	11845
bin	0.0002511936	12212
bin	0.000252048	12056
bin	0.0002529024	11816
bin	0.0002537568	11937
bin	0.0002546112	11866
bin	0.0002554656	12041
bin	0.00025632	11941
bin	0.0002571744	11953
bin	0.0002580288	11761
bin	0.0002588832	11678
bin	0.0002597376	11673
bin	0.000260592	11728
bin	0.0002614464	11672
bin	0.0002623008	11857
bin	0.0002631552	11645
bin	0.0002640096	11807
bin	0.000264864	11640
bin	0.0002657184	11805
bin	0.0002665728	11476
bin	0.0002674272	11728
bin	0.0002682816	11582
bin	0.000269136	11548
bin	0.0002699904	11558
bin	0.0002708448	11639
bin	0.0002716992	11704
bin	0.0002725536	11753
bin	0.000273408	11489
bin	0.0002742624	11422
bin	0.0002751168	11551
bin	0.0002759712	11501
bin	0.0002768256	11473
bin	0.00027768	11537
bin	0.0002785344	11691
bin	0.0002793888	11409
bin	0.0002802432	11330
bin	0.0002810976	11436
bin	0.000281952	11540
bin	0.0002828064	11300
bin	0.0002836608	11291
bin	0.0002845152	11284
bin	0.0002853696	11410
bin	0.000286224	11462
bin	0.0002870784	11369
bin	0.0002879328	11394
bin	0.0002887872	11389
bin	0.0002896416	11195
bin	0.000290496	11300
bin	0.0002913504	11431
bin	0.0002922048	11453
bin	0.0002930592	11383
bin	0.0002939136	11425
bin	0.000294768	11324
bin	0.0002956224	11588
bin	0.0002964768	11255
bin	0.0002973312	11542
bin	0.0002981856	11548
bin	0.00029904	11407
bin	0.0002998944	11470
bin	0.0003007488	11398
bin	0.0003016032	11404
bin	0.0003024576	11220
bin	0.000303312	11384
bin	0.0003041664	11242
bin	0.0003050208	11242
bin	0.0003058752	11183
bin	0.0003067296	11326
bin	0.000307584	11437
bin	0.0003084384	11220
bin	0.0003092928	11225
bin	0.0003101472	11057
bin	0.0003110016	11427
bin	0.000311856	11242
bin	0.0003127104	11295
bin	0.0003135648	11399
bin	0.0003144192	11510
bin	0.0003152736	11485
bin	0.000316128	11324
bin	0.0003169824	11245
bin	0.0003178368	11126
bin	0.0003186912	11323
bin	0.0003195456	11190
bin	0.0003204	11202
bin	0.0003212544	11348
bin	0.0003221088	11575
bin	0.0003229632	11297
bin	0.0003238176	11231
bin	0.000324672	11251
bin	0.0003255264	11178
bin	0.0003263808	11254
bin	0.0003272352	11368
bin	0.0003280896	11268
bin	0.000328944	11239
bin	0.0003297984	11266
bin	0.0003306528	11213
bin	0.0003315072	11218
bin	0.0003323616	11175
bin	0.000333216	11206
bin	0.0003340704	11172
bin	0.0003349248	11182
bin	0.0003357792	11278
bin	0.0003366336	10996
bin	0.000337488	10972
bin	0.0003383424	11140
bin	0.0003391968	11090
bin	0.0003400512	11154
bin	0.0003409056	10959
bin	0.00034176	10940
bin	0.0003426144	10736
bin	0.0003434688	10820
bin	0.0003443232	10895
bin	0.0003451776	10935
bin	0.000346032	10867
bin	0.0003468864	10894
bin	0.0003477408	10809
bin	0.0003485952	10799
bin	0.0003494496	10757
bin	0.000350304	10726
bin	0.0003511584	10611
bin	0.0003520128	10863
bin	0.0003528672	10876
bin	0.0003537216	10811
bin	0.000354576	10977
bin	0.0003554304	10825
bin	0.0003562848	10558
bin	0.0003571392	10805
bin	0.0003579936	10913
bin	0.000358848	10782
bin	0.0003597024	10714
bin	0.0003605568	10747
bin	0.0003614112	10692
bin	0.0003622656	10877
bin	0.00036312	10843
bin	0.0003639744	10735
bin	0.0003648288	10679
bin	0.0003656832	10769
bin	0.0003665376	10765
bin	0.000367392	10619
bin	0.0003682464	10658
bin	0.0003691008	10845
bin	0.0003699552	10835
bin	0.0003708096	10839
bin	0.000371664	10754
bin	0.0003725184	10750
bin	0.0003733728	10697
bin	0.0003742272	10749
bin	0.0003750816	10657
bin	0.000375936	10562
bin	0.0003767904	10673
bin	0.0003776448	10514
bin	0.0003784992	10632
bin	0.0003793536	10570
bin	0.000380208	10537
bin	0.0003810624	10725
bin	0.0003819168	10475
bin	0.0003827712	10556
bin	0.0003836256	10533
bin	0.00038448	10519
bin	0.0003853344	10422
bin	0.0003861888	10392
bin	0.0003870432	10309
bin	0.0003878976	10348
bin	0.000388752	10163
bin	0.0003896064	10238
bin	0.0003904608	10208
bin	0.0003913152	10134
bin	0.0003921696	10246
bin	0.000393024	10268
bin	0.0003938784	10234
bin	0.0003947328	10221
bin	0.0003955872	10111
bin	0.0003964416	10104
bin	0.000397296	9944
bin	0.0003981504	9857
bin	0.0003990048	9860
bin	0.0003998592	9875
bin	0.0004007136	9778
bin	0.000401568	9581
bin	0.0004024224	9745
bin	0.0004032768	9583
bin	0.0004041312	9339
bin	0.0004049856	9390
bin	0.00040584	9411
bin	0.0004066944	9506
bin	0.0004075488	9329
bin	0.0004084032	9395
bin	0.0004092576	9318
bin	0.000410112	9306
bin	0.0004109664	9426
bin	0.0004118208	9303
bin	0.0004126752	9209
bin	0.0004135296	9102
bin	0.000414384	9157
bin	0.0004152384	9031
bin	0.0004160928	8909
bin	0.0004169472	8871
bin	0.0004178016	8726
bin	0.000418656	8759
bin	0.0004195104	8450
bin	0.0004203648	8590
bin	0.0004212192	8653
bin	0.0004220736	8443
bin	0.000422928	8519
bin	0.0004237824	8379
bin	0.0004246368	8376
bin	0.0004254912	8246
bin	0.0004263456	8173
bin	0.0004272	576855
