version 2
run Butterfly-33-20120709-10:43:08-22772
attr alg 1
attr buf 8
attr configname Butterfly
attr datetime 20120709-10:43:08
attr delta 1.8
attr experiment Butterfly
attr ext true
attr inifile altro.ini
attr iterationvars "$buf=8, $ext=true, $ofedge=1, $delta=1.8, $alg=1"
attr iterationvars2 "$buf=8, $ext=true, $ofedge=1, $delta=1.8, $alg=1, $repetition=0"
attr measurement "$buf=8, $ext=true, $ofedge=1, $delta=1.8, $alg=1"
attr network Torus3d_bub
attr ofedge 1
attr processid 22772
attr repetition 0
attr replication #0
attr resultdir altro-results
attr runnumber 33
attr seedset 33

scalar . 	alg 	1
scalar . 	buf 	8
scalar . 	delta 	1.8
scalar . 	ofedge 	1
scalar Torus3d_bub.timer 	#endTime 	0.000822106998755
scalar Torus3d_bub.timer 	#totalHops 	35745055
scalar Torus3d_bub.timer 	#totalPacks 	6291456
scalar Torus3d_bub.timer 	#totalDerouted 	4178092
scalar Torus3d_bub.timer 	#totalOutFlanked 	4178092
scalar Torus3d_bub.timer 	#totalCQRed 	0
scalar Torus3d_bub.timer 	#LB 	0.000786432
scalar Torus3d_bub.timer 	#ratio 	0.95660540682779
statistic Torus3d_bub.timer 	"Hop Times"
field count 6291456
field mean 3.5868886242649e-05
field stddev 4.3147433941509e-05
field sum 225.66751956463
field sqrsum 0.019807251003546
field min 4.50555549e-07
field max 0.000482422666129
bin	-INF	0
bin	0	0
bin	7.12e-08	0
bin	1.424e-07	0
bin	2.136e-07	0
bin	2.848e-07	0
bin	3.56e-07	0
bin	4.272e-07	8
bin	4.984e-07	2141
bin	5.696e-07	2198
bin	6.408e-07	2290
bin	7.12e-07	5663
bin	7.832e-07	493
bin	8.544e-07	4640
bin	9.256e-07	8102
bin	9.968e-07	3987
bin	1.068e-06	2089
bin	1.1392e-06	9528
bin	1.2104e-06	9917
bin	1.2816e-06	5970
bin	1.3528e-06	5581
bin	1.424e-06	3910
bin	1.4952e-06	11081
bin	1.5664e-06	6316
bin	1.6376e-06	5759
bin	1.7088e-06	10418
bin	1.78e-06	9017
bin	1.8512e-06	9866
bin	1.9224e-06	11475
bin	1.9936e-06	10675
bin	2.0648e-06	13124
bin	2.136e-06	9590
bin	2.2072e-06	11402
bin	2.2784e-06	20908
bin	2.3496e-06	12278
bin	2.4208e-06	16200
bin	2.492e-06	14897
bin	2.5632e-06	14066
bin	2.6344e-06	14370
bin	2.7056e-06	16067
bin	2.7768e-06	19185
bin	2.848e-06	13745
bin	2.9192e-06	13366
bin	2.9904e-06	9892
bin	3.0616e-06	16858
bin	3.1328e-06	12920
bin	3.204e-06	14232
bin	3.2752e-06	16759
bin	3.3464e-06	8106
bin	3.4176e-06	9062
bin	3.4888e-06	11606
bin	3.56e-06	13126
bin	3.6312e-06	6886
bin	3.7024e-06	8787
bin	3.7736e-06	10517
bin	3.8448e-06	10805
bin	3.916e-06	10568
bin	3.9872e-06	8051
bin	4.0584e-06	11615
bin	4.1296e-06	6286
bin	4.2008e-06	6174
bin	4.272e-06	10340
bin	4.3432e-06	10459
bin	4.4144e-06	6288
bin	4.4856e-06	6320
bin	4.5568e-06	6459
bin	4.628e-06	10826
bin	4.6992e-06	6318
bin	4.7704e-06	6480
bin	4.8416e-06	10902
bin	4.9128e-06	6707
bin	4.984e-06	6852
bin	5.0552e-06	6929
bin	5.1264e-06	12267
bin	5.1976e-06	7085
bin	5.2688e-06	8064
bin	5.34e-06	7166
bin	5.4112e-06	11470
bin	5.4824e-06	7080
bin	5.5536e-06	8365
bin	5.6248e-06	11723
bin	5.696e-06	7454
bin	5.7672e-06	7528
bin	5.8384e-06	7720
bin	5.9096e-06	11950
bin	5.9808e-06	7842
bin	6.052e-06	7905
bin	6.1232e-06	8116
bin	6.1944e-06	12495
bin	6.2656e-06	8504
bin	6.3368e-06	7947
bin	6.408e-06	12053
bin	6.4792e-06	7949
bin	6.5504e-06	7777
bin	6.6216e-06	7870
bin	6.6928e-06	12039
bin	6.764e-06	7825
bin	6.8352e-06	7781
bin	6.9064e-06	7913
bin	6.9776e-06	12124
bin	7.0488e-06	7909
bin	7.12e-06	7839
bin	7.1912e-06	12212
bin	7.2624e-06	8030
bin	7.3336e-06	8180
bin	7.4048e-06	8596
bin	7.476e-06	12541
bin	7.5472e-06	8237
bin	7.6184e-06	8607
bin	7.6896e-06	8657
bin	7.7608e-06	12751
bin	7.832e-06	8521
bin	7.9032e-06	8536
bin	7.9744e-06	12626
bin	8.0456e-06	8430
bin	8.1168e-06	8354
bin	8.188e-06	8192
bin	8.2592e-06	8409
bin	8.3304e-06	8497
bin	8.4016e-06	8641
bin	8.4728e-06	8521
bin	8.544e-06	12617
bin	8.6152e-06	8370
bin	8.6864e-06	8724
bin	8.7576e-06	12629
bin	8.8288e-06	8400
bin	8.9e-06	8535
bin	8.9712e-06	8590
bin	9.0424e-06	10654
bin	9.1136e-06	8710
bin	9.1848e-06	8720
bin	9.256e-06	8778
bin	9.3272e-06	13073
bin	9.3984e-06	8774
bin	9.4696e-06	8760
bin	9.5408e-06	9082
bin	9.612e-06	8950
bin	9.6832e-06	8986
bin	9.7544e-06	9106
bin	9.8256e-06	11119
bin	9.8968e-06	9081
bin	9.968e-06	9059
bin	1.00392e-05	9176
bin	1.01104e-05	13498
bin	1.01816e-05	9167
bin	1.02528e-05	9168
bin	1.0324e-05	11529
bin	1.03952e-05	9201
bin	1.04664e-05	9248
bin	1.05376e-05	9367
bin	1.06088e-05	9215
bin	1.068e-05	9210
bin	1.07512e-05	9381
bin	1.08224e-05	9301
bin	1.08936e-05	11364
bin	1.09648e-05	9386
bin	1.1036e-05	9296
bin	1.11072e-05	13582
bin	1.11784e-05	9387
bin	1.12496e-05	9380
bin	1.13208e-05	9396
bin	1.1392e-05	11649
bin	1.14632e-05	9309
bin	1.15344e-05	9621
bin	1.16056e-05	9662
bin	1.16768e-05	13659
bin	1.1748e-05	9673
bin	1.18192e-05	9596
bin	1.18904e-05	11749
bin	1.19616e-05	9599
bin	1.20328e-05	9546
bin	1.2104e-05	9540
bin	1.21752e-05	13803
bin	1.22464e-05	9456
bin	1.23176e-05	9535
bin	1.23888e-05	9701
bin	1.246e-05	11768
bin	1.25312e-05	9714
bin	1.26024e-05	9750
bin	1.26736e-05	14094
bin	1.27448e-05	9950
bin	1.2816e-05	9792
bin	1.28872e-05	9764
bin	1.29584e-05	11905
bin	1.30296e-05	10028
bin	1.31008e-05	9872
bin	1.3172e-05	9919
bin	1.32432e-05	10064
bin	1.33144e-05	9981
bin	1.33856e-05	9988
bin	1.34568e-05	10013
bin	1.3528e-05	9842
bin	1.35992e-05	9853
bin	1.36704e-05	10004
bin	1.37416e-05	10108
bin	1.38128e-05	10081
bin	1.3884e-05	10079
bin	1.39552e-05	10092
bin	1.40264e-05	10073
bin	1.40976e-05	10133
bin	1.41688e-05	9996
bin	1.424e-05	10244
bin	1.43112e-05	10156
bin	1.43824e-05	10011
bin	1.44536e-05	10190
bin	1.45248e-05	10303
bin	1.4596e-05	10212
bin	1.46672e-05	10246
bin	1.47384e-05	10229
bin	1.48096e-05	10367
bin	1.48808e-05	10157
bin	1.4952e-05	10038
bin	1.50232e-05	10465
bin	1.50944e-05	10389
bin	1.51656e-05	10294
bin	1.52368e-05	10102
bin	1.5308e-05	10353
bin	1.53792e-05	10277
bin	1.54504e-05	10282
bin	1.55216e-05	10298
bin	1.55928e-05	10366
bin	1.5664e-05	10507
bin	1.57352e-05	10284
bin	1.58064e-05	10628
bin	1.58776e-05	10432
bin	1.59488e-05	10335
bin	1.602e-05	10404
bin	1.60912e-05	10551
bin	1.61624e-05	10488
bin	1.62336e-05	10551
bin	1.63048e-05	10438
bin	1.6376e-05	10820
bin	1.64472e-05	10449
bin	1.65184e-05	10416
bin	1.65896e-05	10422
bin	1.66608e-05	10642
bin	1.6732e-05	10255
bin	1.68032e-05	10622
bin	1.68744e-05	10731
bin	1.69456e-05	10210
bin	1.70168e-05	10698
bin	1.7088e-05	10466
bin	1.71592e-05	10631
bin	1.72304e-05	10443
bin	1.73016e-05	10582
bin	1.73728e-05	10385
bin	1.7444e-05	10435
bin	1.75152e-05	10277
bin	1.75864e-05	10590
bin	1.76576e-05	10446
bin	1.77288e-05	10238
bin	1.78e-05	10417
bin	1.78712e-05	10424
bin	1.79424e-05	10498
bin	1.80136e-05	10301
bin	1.80848e-05	10390
bin	1.8156e-05	10303
bin	1.82272e-05	10131
bin	1.82984e-05	10231
bin	1.83696e-05	10316
bin	1.84408e-05	10195
bin	1.8512e-05	10208
bin	1.85832e-05	10479
bin	1.86544e-05	10237
bin	1.87256e-05	9978
bin	1.87968e-05	10106
bin	1.8868e-05	9976
bin	1.89392e-05	10072
bin	1.90104e-05	10011
bin	1.90816e-05	9996
bin	1.91528e-05	10235
bin	1.9224e-05	10138
bin	1.92952e-05	9928
bin	1.93664e-05	10284
bin	1.94376e-05	10080
bin	1.95088e-05	10048
bin	1.958e-05	10047
bin	1.96512e-05	9898
bin	1.97224e-05	10278
bin	1.97936e-05	10078
bin	1.98648e-05	9987
bin	1.9936e-05	10068
bin	2.00072e-05	9982
bin	2.00784e-05	9879
bin	2.01496e-05	9902
bin	2.02208e-05	10091
bin	2.0292e-05	9736
bin	2.03632e-05	9754
bin	2.04344e-05	9775
bin	2.05056e-05	9924
bin	2.05768e-05	9937
bin	2.0648e-05	9604
bin	2.07192e-05	9966
bin	2.07904e-05	9799
bin	2.08616e-05	9744
bin	2.09328e-05	9610
bin	2.1004e-05	9854
bin	2.10752e-05	9598
bin	2.11464e-05	9709
bin	2.12176e-05	9733
bin	2.12888e-05	9511
bin	2.136e-05	9605
bin	2.14312e-05	9452
bin	2.15024e-05	9555
bin	2.15736e-05	9493
bin	2.16448e-05	9365
bin	2.1716e-05	9546
bin	2.17872e-05	9649
bin	2.18584e-05	9524
bin	2.19296e-05	9660
bin	2.20008e-05	9454
bin	2.2072e-05	9703
bin	2.21432e-05	9355
bin	2.22144e-05	9522
bin	2.22856e-05	9373
bin	2.23568e-05	9339
bin	2.2428e-05	9178
bin	2.24992e-05	9441
bin	2.25704e-05	9251
bin	2.26416e-05	9268
bin	2.27128e-05	9345
bin	2.2784e-05	9342
bin	2.28552e-05	9253
bin	2.29264e-05	9273
bin	2.29976e-05	9088
bin	2.30688e-05	9207
bin	2.314e-05	9234
bin	2.32112e-05	9143
bin	2.32824e-05	9119
bin	2.33536e-05	9066
bin	2.34248e-05	9052
bin	2.3496e-05	9032
bin	2.35672e-05	8983
bin	2.36384e-05	8920
bin	2.37096e-05	9048
bin	2.37808e-05	8915
bin	2.3852e-05	8954
bin	2.39232e-05	9070
bin	2.39944e-05	8962
bin	2.40656e-05	9053
bin	2.41368e-05	8974
bin	2.4208e-05	9035
bin	2.42792e-05	8964
bin	2.43504e-05	8799
bin	2.44216e-05	8786
bin	2.44928e-05	8835
bin	2.4564e-05	8833
bin	2.46352e-05	8920
bin	2.47064e-05	8910
bin	2.47776e-05	8750
bin	2.48488e-05	8893
bin	2.492e-05	8644
bin	2.49912e-05	8766
bin	2.50624e-05	8723
bin	2.51336e-05	8691
bin	2.52048e-05	8541
bin	2.5276e-05	8450
bin	2.53472e-05	8430
bin	2.54184e-05	8516
bin	2.54896e-05	8543
bin	2.55608e-05	8393
bin	2.5632e-05	8562
bin	2.57032e-05	8332
bin	2.57744e-05	8434
bin	2.58456e-05	8239
bin	2.59168e-05	8331
bin	2.5988e-05	8279
bin	2.60592e-05	8358
bin	2.61304e-05	8106
bin	2.62016e-05	8314
bin	2.62728e-05	8120
bin	2.6344e-05	8033
bin	2.64152e-05	8229
bin	2.64864e-05	7969
bin	2.65576e-05	8026
bin	2.66288e-05	8160
bin	2.67e-05	7997
bin	2.67712e-05	8038
bin	2.68424e-05	7985
bin	2.69136e-05	7909
bin	2.69848e-05	8036
bin	2.7056e-05	8028
bin	2.71272e-05	8040
bin	2.71984e-05	8195
bin	2.72696e-05	7893
bin	2.73408e-05	7983
bin	2.7412e-05	7822
bin	2.74832e-05	7775
bin	2.75544e-05	7806
bin	2.76256e-05	7845
bin	2.76968e-05	7599
bin	2.7768e-05	7997
bin	2.78392e-05	7728
bin	2.79104e-05	7601
bin	2.79816e-05	7725
bin	2.80528e-05	7569
bin	2.8124e-05	7535
bin	2.81952e-05	7523
bin	2.82664e-05	7589
bin	2.83376e-05	7380
bin	2.84088e-05	7563
bin	2.848e-05	7422
bin	2.85512e-05	7481
bin	2.86224e-05	7397
bin	2.86936e-05	7344
bin	2.87648e-05	7420
bin	2.8836e-05	7234
bin	2.89072e-05	7466
bin	2.89784e-05	7075
bin	2.90496e-05	7254
bin	2.91208e-05	7293
bin	2.9192e-05	7293
bin	2.92632e-05	6950
bin	2.93344e-05	7202
bin	2.94056e-05	7279
bin	2.94768e-05	6998
bin	2.9548e-05	7033
bin	2.96192e-05	6995
bin	2.96904e-05	6972
bin	2.97616e-05	6916
bin	2.98328e-05	7056
bin	2.9904e-05	6743
bin	2.99752e-05	7017
bin	3.00464e-05	6723
bin	3.01176e-05	7143
bin	3.01888e-05	7092
bin	3.026e-05	6584
bin	3.03312e-05	7000
bin	3.04024e-05	6623
bin	3.04736e-05	6754
bin	3.05448e-05	6656
bin	3.0616e-05	6754
bin	3.06872e-05	6626
bin	3.07584e-05	6793
bin	3.08296e-05	6457
bin	3.09008e-05	6686
bin	3.0972e-05	6699
bin	3.10432e-05	6582
bin	3.11144e-05	6529
bin	3.11856e-05	6487
bin	3.12568e-05	6727
bin	3.1328e-05	6301
bin	3.13992e-05	6608
bin	3.14704e-05	6369
bin	3.15416e-05	6505
bin	3.16128e-05	6172
bin	3.1684e-05	6397
bin	3.17552e-05	6449
bin	3.18264e-05	6216
bin	3.18976e-05	6583
bin	3.19688e-05	6031
bin	3.204e-05	6286
bin	3.21112e-05	6053
bin	3.21824e-05	6260
bin	3.22536e-05	6077
bin	3.23248e-05	6513
bin	3.2396e-05	6051
bin	3.24672e-05	6141
bin	3.25384e-05	6129
bin	3.26096e-05	5902
bin	3.26808e-05	6066
bin	3.2752e-05	5930
bin	3.28232e-05	6014
bin	3.28944e-05	5936
bin	3.29656e-05	5999
bin	3.30368e-05	5803
bin	3.3108e-05	5961
bin	3.31792e-05	5819
bin	3.32504e-05	5863
bin	3.33216e-05	5881
bin	3.33928e-05	5659
bin	3.3464e-05	5831
bin	3.35352e-05	5750
bin	3.36064e-05	5917
bin	3.36776e-05	5607
bin	3.37488e-05	5777
bin	3.382e-05	5604
bin	3.38912e-05	5812
bin	3.39624e-05	5617
bin	3.40336e-05	5606
bin	3.41048e-05	5675
bin	3.4176e-05	5464
bin	3.42472e-05	5665
bin	3.43184e-05	5487
bin	3.43896e-05	5711
bin	3.44608e-05	5443
bin	3.4532e-05	5495
bin	3.46032e-05	5429
bin	3.46744e-05	5516
bin	3.47456e-05	5202
bin	3.48168e-05	5396
bin	3.4888e-05	5452
bin	3.49592e-05	5140
bin	3.50304e-05	5370
bin	3.51016e-05	5205
bin	3.51728e-05	5343
bin	3.5244e-05	5061
bin	3.53152e-05	5345
bin	3.53864e-05	5096
bin	3.54576e-05	5270
bin	3.55288e-05	5128
bin	3.56e-05	1922991
statistic Torus3d_bub.timer 	"Life Times"
field count 6291456
field mean 0.00014111791203971
field stddev 8.7284728646716e-05
field sum 887.83713440972
field sqrsum 0.17322195178444
field min 7.33332745e-07
field max 0.000588603665943
bin	-INF	0
bin	0	4344
bin	8.544e-07	19884
bin	1.7088e-06	29143
bin	2.5632e-06	19454
bin	3.4176e-06	24449
bin	4.272e-06	26134
bin	5.1264e-06	35128
bin	5.9808e-06	26495
bin	6.8352e-06	22933
bin	7.6896e-06	25966
bin	8.544e-06	36580
bin	9.3984e-06	32322
bin	1.02528e-05	26459
bin	1.11072e-05	44685
bin	1.19616e-05	30760
bin	1.2816e-05	23329
bin	1.36704e-05	20939
bin	1.45248e-05	17059
bin	1.53792e-05	24028
bin	1.62336e-05	19649
bin	1.7088e-05	18485
bin	1.79424e-05	16829
bin	1.87968e-05	17234
bin	1.96512e-05	16975
bin	2.05056e-05	16778
bin	2.136e-05	14149
bin	2.22144e-05	14363
bin	2.30688e-05	12974
bin	2.39232e-05	12348
bin	2.47776e-05	13300
bin	2.5632e-05	12531
bin	2.64864e-05	12689
bin	2.73408e-05	13153
bin	2.81952e-05	13523
bin	2.90496e-05	15487
bin	2.9904e-05	15323
bin	3.07584e-05	16108
bin	3.16128e-05	15505
bin	3.24672e-05	15873
bin	3.33216e-05	16134
bin	3.4176e-05	15871
bin	3.50304e-05	16002
bin	3.58848e-05	15662
bin	3.67392e-05	16013
bin	3.75936e-05	15582
bin	3.8448e-05	16239
bin	3.93024e-05	16203
bin	4.01568e-05	16617
bin	4.10112e-05	16469
bin	4.18656e-05	17174
bin	4.272e-05	17162
bin	4.35744e-05	17036
bin	4.44288e-05	17224
bin	4.52832e-05	17392
bin	4.61376e-05	17565
bin	4.6992e-05	17647
bin	4.78464e-05	18009
bin	4.87008e-05	18142
bin	4.95552e-05	18462
bin	5.04096e-05	18309
bin	5.1264e-05	18576
bin	5.21184e-05	19047
bin	5.29728e-05	18922
bin	5.38272e-05	19109
bin	5.46816e-05	19045
bin	5.5536e-05	19315
bin	5.63904e-05	19483
bin	5.72448e-05	19216
bin	5.80992e-05	19409
bin	5.89536e-05	19071
bin	5.9808e-05	19253
bin	6.06624e-05	19399
bin	6.15168e-05	19751
bin	6.23712e-05	19028
bin	6.32256e-05	19266
bin	6.408e-05	19326
bin	6.49344e-05	19259
bin	6.57888e-05	18969
bin	6.66432e-05	19098
bin	6.74976e-05	19055
bin	6.8352e-05	19010
bin	6.92064e-05	18800
bin	7.00608e-05	18468
bin	7.09152e-05	18828
bin	7.17696e-05	18546
bin	7.2624e-05	18271
bin	7.34784e-05	18292
bin	7.43328e-05	18415
bin	7.51872e-05	18370
bin	7.60416e-05	18322
bin	7.6896e-05	18694
bin	7.77504e-05	18633
bin	7.86048e-05	18537
bin	7.94592e-05	18662
bin	8.03136e-05	19222
bin	8.1168e-05	18820
bin	8.20224e-05	18988
bin	8.28768e-05	19253
bin	8.37312e-05	19363
bin	8.45856e-05	19261
bin	8.544e-05	19574
bin	8.62944e-05	19579
bin	8.71488e-05	19831
bin	8.80032e-05	19424
bin	8.88576e-05	19850
bin	8.9712e-05	19926
bin	9.05664e-05	19957
bin	9.14208e-05	19829
bin	9.22752e-05	20349
bin	9.31296e-05	20261
bin	9.3984e-05	20200
bin	9.48384e-05	20138
bin	9.56928e-05	20589
bin	9.65472e-05	20398
bin	9.74016e-05	20325
bin	9.8256e-05	20619
bin	9.91104e-05	20759
bin	9.99648e-05	20940
bin	0.0001008192	20791
bin	0.0001016736	20767
bin	0.000102528	20631
bin	0.0001033824	20560
bin	0.0001042368	20643
bin	0.0001050912	20515
bin	0.0001059456	20735
bin	0.0001068	20679
bin	0.0001076544	21029
bin	0.0001085088	20866
bin	0.0001093632	20957
bin	0.0001102176	20785
bin	0.000111072	21101
bin	0.0001119264	21001
bin	0.0001127808	20776
bin	0.0001136352	21103
bin	0.0001144896	21356
bin	0.000115344	21298
bin	0.0001161984	21207
bin	0.0001170528	21232
bin	0.0001179072	20963
bin	0.0001187616	21073
bin	0.000119616	20965
bin	0.0001204704	21291
bin	0.0001213248	21167
bin	0.0001221792	20885
bin	0.0001230336	21327
bin	0.000123888	21137
bin	0.0001247424	21088
bin	0.0001255968	21252
bin	0.0001264512	21362
bin	0.0001273056	21566
bin	0.00012816	21486
bin	0.0001290144	21611
bin	0.0001298688	21576
bin	0.0001307232	21574
bin	0.0001315776	21636
bin	0.000132432	21392
bin	0.0001332864	21360
bin	0.0001341408	21272
bin	0.0001349952	21377
bin	0.0001358496	21381
bin	0.000136704	21482
bin	0.0001375584	21514
bin	0.0001384128	21328
bin	0.0001392672	21368
bin	0.0001401216	21540
bin	0.000140976	21722
bin	0.0001418304	21521
bin	0.0001426848	21320
bin	0.0001435392	21622
bin	0.0001443936	21656
bin	0.000145248	21612
bin	0.0001461024	21438
bin	0.0001469568	21727
bin	0.0001478112	21479
bin	0.0001486656	21435
bin	0.00014952	21202
bin	0.0001503744	21344
bin	0.0001512288	21270
bin	0.0001520832	21212
bin	0.0001529376	21291
bin	0.000153792	21063
bin	0.0001546464	20975
bin	0.0001555008	21460
bin	0.0001563552	20849
bin	0.0001572096	21062
bin	0.000158064	21117
bin	0.0001589184	20813
bin	0.0001597728	20834
bin	0.0001606272	20665
bin	0.0001614816	20604
bin	0.000162336	20470
bin	0.0001631904	20593
bin	0.0001640448	20478
bin	0.0001648992	20556
bin	0.0001657536	20581
bin	0.000166608	20431
bin	0.0001674624	20291
bin	0.0001683168	20221
bin	0.0001691712	20256
bin	0.0001700256	20179
bin	0.00017088	20311
bin	0.0001717344	20173
bin	0.0001725888	20297
bin	0.0001734432	20144
bin	0.0001742976	20025
bin	0.000175152	20178
bin	0.0001760064	20098
bin	0.0001768608	19772
bin	0.0001777152	19927
bin	0.0001785696	19670
bin	0.000179424	19565
bin	0.0001802784	19483
bin	0.0001811328	19449
bin	0.0001819872	19339
bin	0.0001828416	19293
bin	0.000183696	18871
bin	0.0001845504	19107
bin	0.0001854048	19196
bin	0.0001862592	18947
bin	0.0001871136	18930
bin	0.000187968	18601
bin	0.0001888224	18585
bin	0.0001896768	18637
bin	0.0001905312	18736
bin	0.0001913856	18467
bin	0.00019224	18356
bin	0.0001930944	18318
bin	0.0001939488	18225
bin	0.0001948032	18097
bin	0.0001956576	18222
bin	0.000196512	17971
bin	0.0001973664	18189
bin	0.0001982208	17800
bin	0.0001990752	17734
bin	0.0001999296	17867
bin	0.000200784	17453
bin	0.0002016384	17367
bin	0.0002024928	17056
bin	0.0002033472	16924
bin	0.0002042016	16901
bin	0.000205056	17164
bin	0.0002059104	17045
bin	0.0002067648	17032
bin	0.0002076192	16709
bin	0.0002084736	16672
bin	0.000209328	16620
bin	0.0002101824	16705
bin	0.0002110368	16433
bin	0.0002118912	16467
bin	0.0002127456	16269
bin	0.0002136	16109
bin	0.0002144544	16043
bin	0.0002153088	15803
bin	0.0002161632	15673
bin	0.0002170176	15734
bin	0.000217872	15752
bin	0.0002187264	15374
bin	0.0002195808	15387
bin	0.0002204352	15119
bin	0.0002212896	14882
bin	0.000222144	14764
bin	0.0002229984	14907
bin	0.0002238528	14737
bin	0.0002247072	14540
bin	0.0002255616	14881
bin	0.000226416	14572
bin	0.0002272704	14450
bin	0.0002281248	14653
bin	0.0002289792	14498
bin	0.0002298336	14315
bin	0.000230688	14516
bin	0.0002315424	14181
bin	0.0002323968	14150
bin	0.0002332512	14088
bin	0.0002341056	14046
bin	0.00023496	13895
bin	0.0002358144	13621
bin	0.0002366688	13541
bin	0.0002375232	13414
bin	0.0002383776	13447
bin	0.000239232	13332
bin	0.0002400864	13260
bin	0.0002409408	13178
bin	0.0002417952	13073
bin	0.0002426496	12829
bin	0.000243504	12748
bin	0.0002443584	12435
bin	0.0002452128	12393
bin	0.0002460672	12556
bin	0.0002469216	12309
bin	0.000247776	12203
bin	0.0002486304	12063
bin	0.0002494848	12004
bin	0.0002503392	11919
bin	0.0002511936	11793
bin	0.000252048	11771
bin	0.0002529024	11672
bin	0.0002537568	11408
bin	0.0002546112	11241
bin	0.0002554656	11182
bin	0.00025632	10944
bin	0.0002571744	11047
bin	0.0002580288	10813
bin	0.0002588832	10844
bin	0.0002597376	10495
bin	0.000260592	10281
bin	0.0002614464	10205
bin	0.0002623008	10043
bin	0.0002631552	10026
bin	0.0002640096	9876
bin	0.000264864	9719
bin	0.0002657184	9851
bin	0.0002665728	9689
bin	0.0002674272	9578
bin	0.0002682816	9485
bin	0.000269136	9404
bin	0.0002699904	9305
bin	0.0002708448	9478
bin	0.0002716992	9368
bin	0.0002725536	9139
bin	0.000273408	9117
bin	0.0002742624	8978
bin	0.0002751168	8872
bin	0.0002759712	8590
bin	0.0002768256	8643
bin	0.00027768	8443
bin	0.0002785344	8369
bin	0.0002793888	8169
bin	0.0002802432	8274
bin	0.0002810976	8105
bin	0.000281952	7912
bin	0.0002828064	7723
bin	0.0002836608	7690
bin	0.0002845152	7388
bin	0.0002853696	7387
bin	0.000286224	7353
bin	0.0002870784	7165
bin	0.0002879328	7175
bin	0.0002887872	7160
bin	0.0002896416	7032
bin	0.000290496	6948
bin	0.0002913504	6924
bin	0.0002922048	6689
bin	0.0002930592	6624
bin	0.0002939136	6496
bin	0.000294768	6371
bin	0.0002956224	6370
bin	0.0002964768	6116
bin	0.0002973312	5870
bin	0.0002981856	5907
bin	0.00029904	5749
bin	0.0002998944	5733
bin	0.0003007488	5635
bin	0.0003016032	5483
bin	0.0003024576	5311
bin	0.000303312	5337
bin	0.0003041664	5222
bin	0.0003050208	5029
bin	0.0003058752	5016
bin	0.0003067296	4880
bin	0.000307584	4803
bin	0.0003084384	4742
bin	0.0003092928	4665
bin	0.0003101472	4535
bin	0.0003110016	4421
bin	0.000311856	4312
bin	0.0003127104	4254
bin	0.0003135648	4132
bin	0.0003144192	4114
bin	0.0003152736	3989
bin	0.000316128	3916
bin	0.0003169824	3795
bin	0.0003178368	3735
bin	0.0003186912	3632
bin	0.0003195456	3546
bin	0.0003204	3476
bin	0.0003212544	3384
bin	0.0003221088	3417
bin	0.0003229632	3247
bin	0.0003238176	3242
bin	0.000324672	3180
bin	0.0003255264	3063
bin	0.0003263808	3032
bin	0.0003272352	2894
bin	0.0003280896	2827
bin	0.000328944	2825
bin	0.0003297984	2828
bin	0.0003306528	2764
bin	0.0003315072	2754
bin	0.0003323616	2632
bin	0.000333216	2653
bin	0.0003340704	2635
bin	0.0003349248	2504
bin	0.0003357792	2476
bin	0.0003366336	2425
bin	0.000337488	2305
bin	0.0003383424	2276
bin	0.0003391968	2241
bin	0.0003400512	2189
bin	0.0003409056	2167
bin	0.00034176	2048
bin	0.0003426144	2015
bin	0.0003434688	2048
bin	0.0003443232	2024
bin	0.0003451776	1917
bin	0.000346032	1880
bin	0.0003468864	1817
bin	0.0003477408	1739
bin	0.0003485952	1755
bin	0.0003494496	1701
bin	0.000350304	1678
bin	0.0003511584	1618
bin	0.0003520128	1596
bin	0.0003528672	1584
bin	0.0003537216	1517
bin	0.000354576	1524
bin	0.0003554304	1440
bin	0.0003562848	1394
bin	0.0003571392	1342
bin	0.0003579936	1356
bin	0.000358848	1334
bin	0.0003597024	1306
bin	0.0003605568	1247
bin	0.0003614112	1248
bin	0.0003622656	1247
bin	0.00036312	1165
bin	0.0003639744	1103
bin	0.0003648288	1113
bin	0.0003656832	1051
bin	0.0003665376	1029
bin	0.000367392	1012
bin	0.0003682464	963
bin	0.0003691008	979
bin	0.0003699552	917
bin	0.0003708096	893
bin	0.000371664	893
bin	0.0003725184	874
bin	0.0003733728	822
bin	0.0003742272	785
bin	0.0003750816	752
bin	0.000375936	733
bin	0.0003767904	749
bin	0.0003776448	691
bin	0.0003784992	667
bin	0.0003793536	669
bin	0.000380208	680
bin	0.0003810624	698
bin	0.0003819168	649
bin	0.0003827712	639
bin	0.0003836256	606
bin	0.00038448	560
bin	0.0003853344	569
bin	0.0003861888	512
bin	0.0003870432	496
bin	0.0003878976	505
bin	0.000388752	480
bin	0.0003896064	457
bin	0.0003904608	489
bin	0.0003913152	481
bin	0.0003921696	446
bin	0.000393024	435
bin	0.0003938784	408
bin	0.0003947328	395
bin	0.0003955872	385
bin	0.0003964416	388
bin	0.000397296	346
bin	0.0003981504	337
bin	0.0003990048	355
bin	0.0003998592	318
bin	0.0004007136	320
bin	0.000401568	308
bin	0.0004024224	286
bin	0.0004032768	263
bin	0.0004041312	278
bin	0.0004049856	269
bin	0.00040584	225
bin	0.0004066944	255
bin	0.0004075488	271
bin	0.0004084032	214
bin	0.0004092576	212
bin	0.000410112	191
bin	0.0004109664	205
bin	0.0004118208	164
bin	0.0004126752	167
bin	0.0004135296	192
bin	0.000414384	176
bin	0.0004152384	141
bin	0.0004160928	156
bin	0.0004169472	125
bin	0.0004178016	130
bin	0.000418656	155
bin	0.0004195104	148
bin	0.0004203648	133
bin	0.0004212192	118
bin	0.0004220736	104
bin	0.000422928	114
bin	0.0004237824	114
bin	0.0004246368	109
bin	0.0004254912	127
bin	0.0004263456	98
bin	0.0004272	2554
