version 2
run Butterfly-101-20120709-12:37:38-24125
attr alg 1
attr buf 8
attr configname Butterfly
attr datetime 20120709-12:37:38
attr delta 0.4
attr experiment Butterfly
attr ext false
attr inifile altro.ini
attr iterationvars "$buf=8, $ext=false, $ofedge=1, $delta=0.4, $alg=1"
attr iterationvars2 "$buf=8, $ext=false, $ofedge=1, $delta=0.4, $alg=1, $repetition=0"
attr measurement "$buf=8, $ext=false, $ofedge=1, $delta=0.4, $alg=1"
attr network Torus3d_bub
attr ofedge 1
attr processid 24125
attr repetition 0
attr replication #0
attr resultdir altro-results
attr runnumber 101
attr seedset 101

scalar . 	alg 	1
scalar . 	buf 	8
scalar . 	delta 	0.4
scalar . 	ofedge 	1
scalar Torus3d_bub.timer 	#endTime 	0.001988712330354
scalar Torus3d_bub.timer 	#totalHops 	31902249
scalar Torus3d_bub.timer 	#totalPacks 	6291456
scalar Torus3d_bub.timer 	#totalDerouted 	3582348
scalar Torus3d_bub.timer 	#totalOutFlanked 	3582348
scalar Torus3d_bub.timer 	#totalCQRed 	0
scalar Torus3d_bub.timer 	#LB 	0.000786432
scalar Torus3d_bub.timer 	#ratio 	0.39544784230307
statistic Torus3d_bub.timer 	"Hop Times"
field count 6291456
field mean 4.6726958234726e-06
field stddev 3.0372549425502e-06
field sum 29.398060174762
field sqrsum 0.00019540634686812
field min 4.50332613e-07
field max 1.8637331029e-05
bin	-INF	0
bin	0	0
bin	7.12e-08	0
bin	1.424e-07	0
bin	2.136e-07	0
bin	2.848e-07	0
bin	3.56e-07	0
bin	4.272e-07	16384
bin	4.984e-07	28672
bin	5.696e-07	24577
bin	6.408e-07	98306
bin	7.12e-07	47696
bin	7.832e-07	16850
bin	8.544e-07	33254
bin	9.256e-07	67664
bin	9.968e-07	34739
bin	1.068e-06	16457
bin	1.1392e-06	83810
bin	1.2104e-06	67390
bin	1.2816e-06	31921
bin	1.3528e-06	42691
bin	1.424e-06	9522
bin	1.4952e-06	69012
bin	1.5664e-06	13961
bin	1.6376e-06	4466
bin	1.7088e-06	51115
bin	1.78e-06	64222
bin	1.8512e-06	51928
bin	1.9224e-06	80532
bin	1.9936e-06	55070
bin	2.0648e-06	81031
bin	2.136e-06	52286
bin	2.2072e-06	75798
bin	2.2784e-06	141223
bin	2.3496e-06	92229
bin	2.4208e-06	119078
bin	2.492e-06	110184
bin	2.5632e-06	109352
bin	2.6344e-06	113627
bin	2.7056e-06	104319
bin	2.7768e-06	123268
bin	2.848e-06	85368
bin	2.9192e-06	102068
bin	2.9904e-06	63714
bin	3.0616e-06	110584
bin	3.1328e-06	79605
bin	3.204e-06	86975
bin	3.2752e-06	97261
bin	3.3464e-06	51507
bin	3.4176e-06	55381
bin	3.4888e-06	56658
bin	3.56e-06	68796
bin	3.6312e-06	47018
bin	3.7024e-06	48507
bin	3.7736e-06	49194
bin	3.8448e-06	64352
bin	3.916e-06	50620
bin	3.9872e-06	51749
bin	4.0584e-06	75671
bin	4.1296e-06	59202
bin	4.2008e-06	58087
bin	4.272e-06	64134
bin	4.3432e-06	59961
bin	4.4144e-06	33958
bin	4.4856e-06	31909
bin	4.5568e-06	30166
bin	4.628e-06	64986
bin	4.6992e-06	35432
bin	4.7704e-06	36647
bin	4.8416e-06	56929
bin	4.9128e-06	40836
bin	4.984e-06	35001
bin	5.0552e-06	55657
bin	5.1264e-06	88754
bin	5.1976e-06	42003
bin	5.2688e-06	66790
bin	5.34e-06	37385
bin	5.4112e-06	97101
bin	5.4824e-06	46322
bin	5.5536e-06	36028
bin	5.6248e-06	71317
bin	5.696e-06	45160
bin	5.7672e-06	42936
bin	5.8384e-06	61575
bin	5.9096e-06	61579
bin	5.9808e-06	26096
bin	6.052e-06	33532
bin	6.1232e-06	20829
bin	6.1944e-06	49500
bin	6.2656e-06	13560
bin	6.3368e-06	11688
bin	6.408e-06	39641
bin	6.4792e-06	16179
bin	6.5504e-06	10675
bin	6.6216e-06	12405
bin	6.6928e-06	36900
bin	6.764e-06	14475
bin	6.8352e-06	13230
bin	6.9064e-06	12380
bin	6.9776e-06	38921
bin	7.0488e-06	13624
bin	7.12e-06	12126
bin	7.1912e-06	34867
bin	7.2624e-06	19216
bin	7.3336e-06	15216
bin	7.4048e-06	13800
bin	7.476e-06	41776
bin	7.5472e-06	21169
bin	7.6184e-06	16108
bin	7.6896e-06	17341
bin	7.7608e-06	47053
bin	7.832e-06	19169
bin	7.9032e-06	20649
bin	7.9744e-06	40427
bin	8.0456e-06	18565
bin	8.1168e-06	16346
bin	8.188e-06	10506
bin	8.2592e-06	9887
bin	8.3304e-06	8870
bin	8.4016e-06	3448
bin	8.4728e-06	2067
bin	8.544e-06	27715
bin	8.6152e-06	1574
bin	8.6864e-06	18428
bin	8.7576e-06	24624
bin	8.8288e-06	20668
bin	8.9e-06	1780
bin	8.9712e-06	18165
bin	9.0424e-06	33292
bin	9.1136e-06	6125
bin	9.1848e-06	19959
bin	9.256e-06	2514
bin	9.3272e-06	42334
bin	9.3984e-06	2775
bin	9.4696e-06	20298
bin	9.5408e-06	6076
bin	9.612e-06	21571
bin	9.6832e-06	3249
bin	9.7544e-06	3300
bin	9.8256e-06	18580
bin	9.8968e-06	7566
bin	9.968e-06	4259
bin	1.00392e-05	2599
bin	1.01104e-05	26029
bin	1.01816e-05	1311
bin	1.02528e-05	2723
bin	1.0324e-05	16467
bin	1.03952e-05	2956
bin	1.04664e-05	3128
bin	1.05376e-05	2799
bin	1.06088e-05	8140
bin	1.068e-05	4380
bin	1.07512e-05	3100
bin	1.08224e-05	3036
bin	1.08936e-05	17257
bin	1.09648e-05	2667
bin	1.1036e-05	2774
bin	1.11072e-05	21439
bin	1.11784e-05	3744
bin	1.12496e-05	1649
bin	1.13208e-05	1986
bin	1.1392e-05	17462
bin	1.14632e-05	5759
bin	1.15344e-05	1711
bin	1.16056e-05	990
bin	1.16768e-05	23979
bin	1.1748e-05	856
bin	1.18192e-05	1212
bin	1.18904e-05	16206
bin	1.19616e-05	21627
bin	1.20328e-05	17272
bin	1.2104e-05	1410
bin	1.21752e-05	41501
bin	1.22464e-05	4267
bin	1.23176e-05	20551
bin	1.23888e-05	4268
bin	1.246e-05	26574
bin	1.25312e-05	22749
bin	1.26024e-05	5849
bin	1.26736e-05	40021
bin	1.27448e-05	25604
bin	1.2816e-05	7507
bin	1.28872e-05	23807
bin	1.29584e-05	13816
bin	1.30296e-05	3395
bin	1.31008e-05	2108
bin	1.3172e-05	1362
bin	1.32432e-05	6218
bin	1.33144e-05	532
bin	1.33856e-05	650
bin	1.34568e-05	2460
bin	1.3528e-05	110
bin	1.35992e-05	50
bin	1.36704e-05	12
bin	1.37416e-05	1389
bin	1.38128e-05	45
bin	1.3884e-05	47
bin	1.39552e-05	17
bin	1.40264e-05	730
bin	1.40976e-05	47
bin	1.41688e-05	10
bin	1.424e-05	562
bin	1.43112e-05	36
bin	1.43824e-05	51
bin	1.44536e-05	13
bin	1.45248e-05	469
bin	1.4596e-05	30
bin	1.46672e-05	30
bin	1.47384e-05	342
bin	1.48096e-05	42
bin	1.48808e-05	45
bin	1.4952e-05	7
bin	1.50232e-05	290
bin	1.50944e-05	16
bin	1.51656e-05	36
bin	1.52368e-05	11
bin	1.5308e-05	216
bin	1.53792e-05	29
bin	1.54504e-05	394
bin	1.55216e-05	125
bin	1.55928e-05	10
bin	1.5664e-05	21
bin	1.57352e-05	386
bin	1.58064e-05	68
bin	1.58776e-05	12
bin	1.59488e-05	5
bin	1.602e-05	32
bin	1.60912e-05	2
bin	1.61624e-05	6
bin	1.62336e-05	1
bin	1.63048e-05	13
bin	1.6376e-05	3
bin	1.64472e-05	2
bin	1.65184e-05	388
bin	1.65896e-05	4
bin	1.66608e-05	3
bin	1.6732e-05	384
bin	1.68032e-05	4
bin	1.68744e-05	0
bin	1.69456e-05	0
bin	1.70168e-05	384
bin	1.7088e-05	4
bin	1.71592e-05	0
bin	1.72304e-05	0
bin	1.73016e-05	1
bin	1.73728e-05	0
bin	1.7444e-05	0
bin	1.75152e-05	0
bin	1.75864e-05	2
bin	1.76576e-05	0
bin	1.77288e-05	0
bin	1.78e-05	0
bin	1.78712e-05	0
bin	1.79424e-05	0
bin	1.80136e-05	0
bin	1.80848e-05	1
bin	1.8156e-05	0
bin	1.82272e-05	0
bin	1.82984e-05	0
bin	1.83696e-05	1
bin	1.84408e-05	0
bin	1.8512e-05	0
bin	1.85832e-05	1
bin	1.86544e-05	0
bin	1.87256e-05	0
bin	1.87968e-05	0
bin	1.8868e-05	0
bin	1.89392e-05	0
bin	1.90104e-05	0
bin	1.90816e-05	0
bin	1.91528e-05	0
bin	1.9224e-05	0
bin	1.92952e-05	0
bin	1.93664e-05	0
bin	1.94376e-05	0
bin	1.95088e-05	0
bin	1.958e-05	0
bin	1.96512e-05	0
bin	1.97224e-05	0
bin	1.97936e-05	0
bin	1.98648e-05	0
bin	1.9936e-05	0
bin	2.00072e-05	0
bin	2.00784e-05	0
bin	2.01496e-05	0
bin	2.02208e-05	0
bin	2.0292e-05	0
bin	2.03632e-05	0
bin	2.04344e-05	0
bin	2.05056e-05	0
bin	2.05768e-05	0
bin	2.0648e-05	0
bin	2.07192e-05	0
bin	2.07904e-05	0
bin	2.08616e-05	0
bin	2.09328e-05	0
bin	2.1004e-05	0
bin	2.10752e-05	0
bin	2.11464e-05	0
bin	2.12176e-05	0
bin	2.12888e-05	0
bin	2.136e-05	0
bin	2.14312e-05	0
bin	2.15024e-05	0
bin	2.15736e-05	0
bin	2.16448e-05	0
bin	2.1716e-05	0
bin	2.17872e-05	0
bin	2.18584e-05	0
bin	2.19296e-05	0
bin	2.20008e-05	0
bin	2.2072e-05	0
bin	2.21432e-05	0
bin	2.22144e-05	0
bin	2.22856e-05	0
bin	2.23568e-05	0
bin	2.2428e-05	0
bin	2.24992e-05	0
bin	2.25704e-05	0
bin	2.26416e-05	0
bin	2.27128e-05	0
bin	2.2784e-05	0
bin	2.28552e-05	0
bin	2.29264e-05	0
bin	2.29976e-05	0
bin	2.30688e-05	0
bin	2.314e-05	0
bin	2.32112e-05	0
bin	2.32824e-05	0
bin	2.33536e-05	0
bin	2.34248e-05	0
bin	2.3496e-05	0
bin	2.35672e-05	0
bin	2.36384e-05	0
bin	2.37096e-05	0
bin	2.37808e-05	0
bin	2.3852e-05	0
bin	2.39232e-05	0
bin	2.39944e-05	0
bin	2.40656e-05	0
bin	2.41368e-05	0
bin	2.4208e-05	0
bin	2.42792e-05	0
bin	2.43504e-05	0
bin	2.44216e-05	0
bin	2.44928e-05	0
bin	2.4564e-05	0
bin	2.46352e-05	0
bin	2.47064e-05	0
bin	2.47776e-05	0
bin	2.48488e-05	0
bin	2.492e-05	0
bin	2.49912e-05	0
bin	2.50624e-05	0
bin	2.51336e-05	0
bin	2.52048e-05	0
bin	2.5276e-05	0
bin	2.53472e-05	0
bin	2.54184e-05	0
bin	2.54896e-05	0
bin	2.55608e-05	0
bin	2.5632e-05	0
bin	2.57032e-05	0
bin	2.57744e-05	0
bin	2.58456e-05	0
bin	2.59168e-05	0
bin	2.5988e-05	0
bin	2.60592e-05	0
bin	2.61304e-05	0
bin	2.62016e-05	0
bin	2.62728e-05	0
bin	2.6344e-05	0
bin	2.64152e-05	0
bin	2.64864e-05	0
bin	2.65576e-05	0
bin	2.66288e-05	0
bin	2.67e-05	0
bin	2.67712e-05	0
bin	2.68424e-05	0
bin	2.69136e-05	0
bin	2.69848e-05	0
bin	2.7056e-05	0
bin	2.71272e-05	0
bin	2.71984e-05	0
bin	2.72696e-05	0
bin	2.73408e-05	0
bin	2.7412e-05	0
bin	2.74832e-05	0
bin	2.75544e-05	0
bin	2.76256e-05	0
bin	2.76968e-05	0
bin	2.7768e-05	0
bin	2.78392e-05	0
bin	2.79104e-05	0
bin	2.79816e-05	0
bin	2.80528e-05	0
bin	2.8124e-05	0
bin	2.81952e-05	0
bin	2.82664e-05	0
bin	2.83376e-05	0
bin	2.84088e-05	0
bin	2.848e-05	0
bin	2.85512e-05	0
bin	2.86224e-05	0
bin	2.86936e-05	0
bin	2.87648e-05	0
bin	2.8836e-05	0
bin	2.89072e-05	0
bin	2.89784e-05	0
bin	2.90496e-05	0
bin	2.91208e-05	0
bin	2.9192e-05	0
bin	2.92632e-05	0
bin	2.93344e-05	0
bin	2.94056e-05	0
bin	2.94768e-05	0
bin	2.9548e-05	0
bin	2.96192e-05	0
bin	2.96904e-05	0
bin	2.97616e-05	0
bin	2.98328e-05	0
bin	2.9904e-05	0
bin	2.99752e-05	0
bin	3.00464e-05	0
bin	3.01176e-05	0
bin	3.01888e-05	0
bin	3.026e-05	0
bin	3.03312e-05	0
bin	3.04024e-05	0
bin	3.04736e-05	0
bin	3.05448e-05	0
bin	3.0616e-05	0
bin	3.06872e-05	0
bin	3.07584e-05	0
bin	3.08296e-05	0
bin	3.09008e-05	0
bin	3.0972e-05	0
bin	3.10432e-05	0
bin	3.11144e-05	0
bin	3.11856e-05	0
bin	3.12568e-05	0
bin	3.1328e-05	0
bin	3.13992e-05	0
bin	3.14704e-05	0
bin	3.15416e-05	0
bin	3.16128e-05	0
bin	3.1684e-05	0
bin	3.17552e-05	0
bin	3.18264e-05	0
bin	3.18976e-05	0
bin	3.19688e-05	0
bin	3.204e-05	0
bin	3.21112e-05	0
bin	3.21824e-05	0
bin	3.22536e-05	0
bin	3.23248e-05	0
bin	3.2396e-05	0
bin	3.24672e-05	0
bin	3.25384e-05	0
bin	3.26096e-05	0
bin	3.26808e-05	0
bin	3.2752e-05	0
bin	3.28232e-05	0
bin	3.28944e-05	0
bin	3.29656e-05	0
bin	3.30368e-05	0
bin	3.3108e-05	0
bin	3.31792e-05	0
bin	3.32504e-05	0
bin	3.33216e-05	0
bin	3.33928e-05	0
bin	3.3464e-05	0
bin	3.35352e-05	0
bin	3.36064e-05	0
bin	3.36776e-05	0
bin	3.37488e-05	0
bin	3.382e-05	0
bin	3.38912e-05	0
bin	3.39624e-05	0
bin	3.40336e-05	0
bin	3.41048e-05	0
bin	3.4176e-05	0
bin	3.42472e-05	0
bin	3.43184e-05	0
bin	3.43896e-05	0
bin	3.44608e-05	0
bin	3.4532e-05	0
bin	3.46032e-05	0
bin	3.46744e-05	0
bin	3.47456e-05	0
bin	3.48168e-05	0
bin	3.4888e-05	0
bin	3.49592e-05	0
bin	3.50304e-05	0
bin	3.51016e-05	0
bin	3.51728e-05	0
bin	3.5244e-05	0
bin	3.53152e-05	0
bin	3.53864e-05	0
bin	3.54576e-05	0
bin	3.55288e-05	0
bin	3.56e-05	0
statistic Torus3d_bub.timer 	"Life Times"
field count 6291456
field mean 2.1227893357071e-05
field stddev 1.6948686730287e-05
field sum 133.55435702871
field sqrsum 0.0046423483147753
field min 5.2e-07
field max 8.5429332274e-05
bin	-INF	0
bin	0	35865
bin	8.544e-07	145360
bin	1.7088e-06	237587
bin	2.5632e-06	175549
bin	3.4176e-06	169751
bin	4.272e-06	154474
bin	5.1264e-06	286237
bin	5.9808e-06	170473
bin	6.8352e-06	158904
bin	7.6896e-06	166653
bin	8.544e-06	234959
bin	9.3984e-06	202286
bin	1.02528e-05	156675
bin	1.11072e-05	234162
bin	1.19616e-05	192058
bin	1.2816e-05	99638
bin	1.36704e-05	89460
bin	1.45248e-05	77239
bin	1.53792e-05	130964
bin	1.62336e-05	104360
bin	1.7088e-05	114461
bin	1.79424e-05	132208
bin	1.87968e-05	84466
bin	1.96512e-05	70153
bin	2.05056e-05	124265
bin	2.136e-05	92136
bin	2.22144e-05	109385
bin	2.30688e-05	125838
bin	2.39232e-05	133715
bin	2.47776e-05	94839
bin	2.5632e-05	63927
bin	2.64864e-05	61638
bin	2.73408e-05	60993
bin	2.81952e-05	65117
bin	2.90496e-05	63432
bin	2.9904e-05	74095
bin	3.07584e-05	58139
bin	3.16128e-05	60240
bin	3.24672e-05	66394
bin	3.33216e-05	69440
bin	3.4176e-05	54538
bin	3.50304e-05	46569
bin	3.58848e-05	42337
bin	3.67392e-05	43587
bin	3.75936e-05	45014
bin	3.8448e-05	41107
bin	3.93024e-05	53060
bin	4.01568e-05	45895
bin	4.10112e-05	47898
bin	4.18656e-05	46951
bin	4.272e-05	47852
bin	4.35744e-05	46945
bin	4.44288e-05	39330
bin	4.52832e-05	41577
bin	4.61376e-05	50442
bin	4.6992e-05	53405
bin	4.78464e-05	51718
bin	4.87008e-05	50394
bin	4.95552e-05	43753
bin	5.04096e-05	42984
bin	5.1264e-05	35412
bin	5.21184e-05	30073
bin	5.29728e-05	24890
bin	5.38272e-05	25939
bin	5.46816e-05	23423
bin	5.5536e-05	18201
bin	5.63904e-05	17165
bin	5.72448e-05	19750
bin	5.80992e-05	19086
bin	5.89536e-05	16219
bin	5.9808e-05	14314
bin	6.06624e-05	11560
bin	6.15168e-05	13438
bin	6.23712e-05	9954
bin	6.32256e-05	6178
bin	6.408e-05	8644
bin	6.49344e-05	7334
bin	6.57888e-05	7299
bin	6.66432e-05	7118
bin	6.74976e-05	6442
bin	6.8352e-05	4997
bin	6.92064e-05	6349
bin	7.00608e-05	5451
bin	7.09152e-05	4524
bin	7.17696e-05	5478
bin	7.2624e-05	8145
bin	7.34784e-05	6382
bin	7.43328e-05	5620
bin	7.51872e-05	8515
bin	7.60416e-05	3860
bin	7.6896e-05	4301
bin	7.77504e-05	5058
bin	7.86048e-05	4563
bin	7.94592e-05	3802
bin	8.03136e-05	3324
bin	8.1168e-05	2703
bin	8.20224e-05	2418
bin	8.28768e-05	567
bin	8.37312e-05	64
bin	8.45856e-05	5
bin	8.544e-05	0
bin	8.62944e-05	0
bin	8.71488e-05	0
bin	8.80032e-05	0
bin	8.88576e-05	0
bin	8.9712e-05	0
bin	9.05664e-05	0
bin	9.14208e-05	0
bin	9.22752e-05	0
bin	9.31296e-05	0
bin	9.3984e-05	0
bin	9.48384e-05	0
bin	9.56928e-05	0
bin	9.65472e-05	0
bin	9.74016e-05	0
bin	9.8256e-05	0
bin	9.91104e-05	0
bin	9.99648e-05	0
bin	0.0001008192	0
bin	0.0001016736	0
bin	0.000102528	0
bin	0.0001033824	0
bin	0.0001042368	0
bin	0.0001050912	0
bin	0.0001059456	0
bin	0.0001068	0
bin	0.0001076544	0
bin	0.0001085088	0
bin	0.0001093632	0
bin	0.0001102176	0
bin	0.000111072	0
bin	0.0001119264	0
bin	0.0001127808	0
bin	0.0001136352	0
bin	0.0001144896	0
bin	0.000115344	0
bin	0.0001161984	0
bin	0.0001170528	0
bin	0.0001179072	0
bin	0.0001187616	0
bin	0.000119616	0
bin	0.0001204704	0
bin	0.0001213248	0
bin	0.0001221792	0
bin	0.0001230336	0
bin	0.000123888	0
bin	0.0001247424	0
bin	0.0001255968	0
bin	0.0001264512	0
bin	0.0001273056	0
bin	0.00012816	0
bin	0.0001290144	0
bin	0.0001298688	0
bin	0.0001307232	0
bin	0.0001315776	0
bin	0.000132432	0
bin	0.0001332864	0
bin	0.0001341408	0
bin	0.0001349952	0
bin	0.0001358496	0
bin	0.000136704	0
bin	0.0001375584	0
bin	0.0001384128	0
bin	0.0001392672	0
bin	0.0001401216	0
bin	0.000140976	0
bin	0.0001418304	0
bin	0.0001426848	0
bin	0.0001435392	0
bin	0.0001443936	0
bin	0.000145248	0
bin	0.0001461024	0
bin	0.0001469568	0
bin	0.0001478112	0
bin	0.0001486656	0
bin	0.00014952	0
bin	0.0001503744	0
bin	0.0001512288	0
bin	0.0001520832	0
bin	0.0001529376	0
bin	0.000153792	0
bin	0.0001546464	0
bin	0.0001555008	0
bin	0.0001563552	0
bin	0.0001572096	0
bin	0.000158064	0
bin	0.0001589184	0
bin	0.0001597728	0
bin	0.0001606272	0
bin	0.0001614816	0
bin	0.000162336	0
bin	0.0001631904	0
bin	0.0001640448	0
bin	0.0001648992	0
bin	0.0001657536	0
bin	0.000166608	0
bin	0.0001674624	0
bin	0.0001683168	0
bin	0.0001691712	0
bin	0.0001700256	0
bin	0.00017088	0
bin	0.0001717344	0
bin	0.0001725888	0
bin	0.0001734432	0
bin	0.0001742976	0
bin	0.000175152	0
bin	0.0001760064	0
bin	0.0001768608	0
bin	0.0001777152	0
bin	0.0001785696	0
bin	0.000179424	0
bin	0.0001802784	0
bin	0.0001811328	0
bin	0.0001819872	0
bin	0.0001828416	0
bin	0.000183696	0
bin	0.0001845504	0
bin	0.0001854048	0
bin	0.0001862592	0
bin	0.0001871136	0
bin	0.000187968	0
bin	0.0001888224	0
bin	0.0001896768	0
bin	0.0001905312	0
bin	0.0001913856	0
bin	0.00019224	0
bin	0.0001930944	0
bin	0.0001939488	0
bin	0.0001948032	0
bin	0.0001956576	0
bin	0.000196512	0
bin	0.0001973664	0
bin	0.0001982208	0
bin	0.0001990752	0
bin	0.0001999296	0
bin	0.000200784	0
bin	0.0002016384	0
bin	0.0002024928	0
bin	0.0002033472	0
bin	0.0002042016	0
bin	0.000205056	0
bin	0.0002059104	0
bin	0.0002067648	0
bin	0.0002076192	0
bin	0.0002084736	0
bin	0.000209328	0
bin	0.0002101824	0
bin	0.0002110368	0
bin	0.0002118912	0
bin	0.0002127456	0
bin	0.0002136	0
bin	0.0002144544	0
bin	0.0002153088	0
bin	0.0002161632	0
bin	0.0002170176	0
bin	0.000217872	0
bin	0.0002187264	0
bin	0.0002195808	0
bin	0.0002204352	0
bin	0.0002212896	0
bin	0.000222144	0
bin	0.0002229984	0
bin	0.0002238528	0
bin	0.0002247072	0
bin	0.0002255616	0
bin	0.000226416	0
bin	0.0002272704	0
bin	0.0002281248	0
bin	0.0002289792	0
bin	0.0002298336	0
bin	0.000230688	0
bin	0.0002315424	0
bin	0.0002323968	0
bin	0.0002332512	0
bin	0.0002341056	0
bin	0.00023496	0
bin	0.0002358144	0
bin	0.0002366688	0
bin	0.0002375232	0
bin	0.0002383776	0
bin	0.000239232	0
bin	0.0002400864	0
bin	0.0002409408	0
bin	0.0002417952	0
bin	0.0002426496	0
bin	0.000243504	0
bin	0.0002443584	0
bin	0.0002452128	0
bin	0.0002460672	0
bin	0.0002469216	0
bin	0.000247776	0
bin	0.0002486304	0
bin	0.0002494848	0
bin	0.0002503392	0
bin	0.0002511936	0
bin	0.000252048	0
bin	0.0002529024	0
bin	0.0002537568	0
bin	0.0002546112	0
bin	0.0002554656	0
bin	0.00025632	0
bin	0.0002571744	0
bin	0.0002580288	0
bin	0.0002588832	0
bin	0.0002597376	0
bin	0.000260592	0
bin	0.0002614464	0
bin	0.0002623008	0
bin	0.0002631552	0
bin	0.0002640096	0
bin	0.000264864	0
bin	0.0002657184	0
bin	0.0002665728	0
bin	0.0002674272	0
bin	0.0002682816	0
bin	0.000269136	0
bin	0.0002699904	0
bin	0.0002708448	0
bin	0.0002716992	0
bin	0.0002725536	0
bin	0.000273408	0
bin	0.0002742624	0
bin	0.0002751168	0
bin	0.0002759712	0
bin	0.0002768256	0
bin	0.00027768	0
bin	0.0002785344	0
bin	0.0002793888	0
bin	0.0002802432	0
bin	0.0002810976	0
bin	0.000281952	0
bin	0.0002828064	0
bin	0.0002836608	0
bin	0.0002845152	0
bin	0.0002853696	0
bin	0.000286224	0
bin	0.0002870784	0
bin	0.0002879328	0
bin	0.0002887872	0
bin	0.0002896416	0
bin	0.000290496	0
bin	0.0002913504	0
bin	0.0002922048	0
bin	0.0002930592	0
bin	0.0002939136	0
bin	0.000294768	0
bin	0.0002956224	0
bin	0.0002964768	0
bin	0.0002973312	0
bin	0.0002981856	0
bin	0.00029904	0
bin	0.0002998944	0
bin	0.0003007488	0
bin	0.0003016032	0
bin	0.0003024576	0
bin	0.000303312	0
bin	0.0003041664	0
bin	0.0003050208	0
bin	0.0003058752	0
bin	0.0003067296	0
bin	0.000307584	0
bin	0.0003084384	0
bin	0.0003092928	0
bin	0.0003101472	0
bin	0.0003110016	0
bin	0.000311856	0
bin	0.0003127104	0
bin	0.0003135648	0
bin	0.0003144192	0
bin	0.0003152736	0
bin	0.000316128	0
bin	0.0003169824	0
bin	0.0003178368	0
bin	0.0003186912	0
bin	0.0003195456	0
bin	0.0003204	0
bin	0.0003212544	0
bin	0.0003221088	0
bin	0.0003229632	0
bin	0.0003238176	0
bin	0.000324672	0
bin	0.0003255264	0
bin	0.0003263808	0
bin	0.0003272352	0
bin	0.0003280896	0
bin	0.000328944	0
bin	0.0003297984	0
bin	0.0003306528	0
bin	0.0003315072	0
bin	0.0003323616	0
bin	0.000333216	0
bin	0.0003340704	0
bin	0.0003349248	0
bin	0.0003357792	0
bin	0.0003366336	0
bin	0.000337488	0
bin	0.0003383424	0
bin	0.0003391968	0
bin	0.0003400512	0
bin	0.0003409056	0
bin	0.00034176	0
bin	0.0003426144	0
bin	0.0003434688	0
bin	0.0003443232	0
bin	0.0003451776	0
bin	0.000346032	0
bin	0.0003468864	0
bin	0.0003477408	0
bin	0.0003485952	0
bin	0.0003494496	0
bin	0.000350304	0
bin	0.0003511584	0
bin	0.0003520128	0
bin	0.0003528672	0
bin	0.0003537216	0
bin	0.000354576	0
bin	0.0003554304	0
bin	0.0003562848	0
bin	0.0003571392	0
bin	0.0003579936	0
bin	0.000358848	0
bin	0.0003597024	0
bin	0.0003605568	0
bin	0.0003614112	0
bin	0.0003622656	0
bin	0.00036312	0
bin	0.0003639744	0
bin	0.0003648288	0
bin	0.0003656832	0
bin	0.0003665376	0
bin	0.000367392	0
bin	0.0003682464	0
bin	0.0003691008	0
bin	0.0003699552	0
bin	0.0003708096	0
bin	0.000371664	0
bin	0.0003725184	0
bin	0.0003733728	0
bin	0.0003742272	0
bin	0.0003750816	0
bin	0.000375936	0
bin	0.0003767904	0
bin	0.0003776448	0
bin	0.0003784992	0
bin	0.0003793536	0
bin	0.000380208	0
bin	0.0003810624	0
bin	0.0003819168	0
bin	0.0003827712	0
bin	0.0003836256	0
bin	0.00038448	0
bin	0.0003853344	0
bin	0.0003861888	0
bin	0.0003870432	0
bin	0.0003878976	0
bin	0.000388752	0
bin	0.0003896064	0
bin	0.0003904608	0
bin	0.0003913152	0
bin	0.0003921696	0
bin	0.000393024	0
bin	0.0003938784	0
bin	0.0003947328	0
bin	0.0003955872	0
bin	0.0003964416	0
bin	0.000397296	0
bin	0.0003981504	0
bin	0.0003990048	0
bin	0.0003998592	0
bin	0.0004007136	0
bin	0.000401568	0
bin	0.0004024224	0
bin	0.0004032768	0
bin	0.0004041312	0
bin	0.0004049856	0
bin	0.00040584	0
bin	0.0004066944	0
bin	0.0004075488	0
bin	0.0004084032	0
bin	0.0004092576	0
bin	0.000410112	0
bin	0.0004109664	0
bin	0.0004118208	0
bin	0.0004126752	0
bin	0.0004135296	0
bin	0.000414384	0
bin	0.0004152384	0
bin	0.0004160928	0
bin	0.0004169472	0
bin	0.0004178016	0
bin	0.000418656	0
bin	0.0004195104	0
bin	0.0004203648	0
bin	0.0004212192	0
bin	0.0004220736	0
bin	0.000422928	0
bin	0.0004237824	0
bin	0.0004246368	0
bin	0.0004254912	0
bin	0.0004263456	0
bin	0.0004272	0
