version 2
run Butterfly-29-20120709-10:43:07-22768
attr alg 1
attr buf 8
attr configname Butterfly
attr datetime 20120709-10:43:07
attr delta 1.6
attr experiment Butterfly
attr ext true
attr inifile altro.ini
attr iterationvars "$buf=8, $ext=true, $ofedge=1, $delta=1.6, $alg=1"
attr iterationvars2 "$buf=8, $ext=true, $ofedge=1, $delta=1.6, $alg=1, $repetition=0"
attr measurement "$buf=8, $ext=true, $ofedge=1, $delta=1.6, $alg=1"
attr network Torus3d_bub
attr ofedge 1
attr processid 22768
attr repetition 0
attr replication #0
attr resultdir altro-results
attr runnumber 29
attr seedset 29

scalar . 	alg 	1
scalar . 	buf 	8
scalar . 	delta 	1.6
scalar . 	ofedge 	1
scalar Torus3d_bub.timer 	#endTime 	0.000848901665363
scalar Torus3d_bub.timer 	#totalHops 	35737671
scalar Torus3d_bub.timer 	#totalPacks 	6291456
scalar Torus3d_bub.timer 	#totalDerouted 	4189948
scalar Torus3d_bub.timer 	#totalOutFlanked 	4189948
scalar Torus3d_bub.timer 	#totalCQRed 	0
scalar Torus3d_bub.timer 	#LB 	0.000786432
scalar Torus3d_bub.timer 	#ratio 	0.92641118764175
statistic Torus3d_bub.timer 	"Hop Times"
field count 6291456
field mean 3.0765448399143e-05
field stddev 3.9332128268605e-05
field sum 193.55946492348
field sqrsum 0.015687927254934
field min 4.43666651e-07
field max 0.000498611999519
bin	-INF	0
bin	0	0
bin	7.12e-08	0
bin	1.424e-07	0
bin	2.136e-07	0
bin	2.848e-07	0
bin	3.56e-07	0
bin	4.272e-07	28
bin	4.984e-07	2359
bin	5.696e-07	2493
bin	6.408e-07	2656
bin	7.12e-07	6594
bin	7.832e-07	1983
bin	8.544e-07	3330
bin	9.256e-07	10291
bin	9.968e-07	5135
bin	1.068e-06	5228
bin	1.1392e-06	10067
bin	1.2104e-06	9906
bin	1.2816e-06	7776
bin	1.3528e-06	6033
bin	1.424e-06	6784
bin	1.4952e-06	14382
bin	1.5664e-06	5951
bin	1.6376e-06	7745
bin	1.7088e-06	12257
bin	1.78e-06	12871
bin	1.8512e-06	12110
bin	1.9224e-06	14796
bin	1.9936e-06	14381
bin	2.0648e-06	15646
bin	2.136e-06	11197
bin	2.2072e-06	14950
bin	2.2784e-06	23266
bin	2.3496e-06	16374
bin	2.4208e-06	19177
bin	2.492e-06	20118
bin	2.5632e-06	16922
bin	2.6344e-06	16055
bin	2.7056e-06	17816
bin	2.7768e-06	19066
bin	2.848e-06	15219
bin	2.9192e-06	14832
bin	2.9904e-06	13280
bin	3.0616e-06	20044
bin	3.1328e-06	15595
bin	3.204e-06	18069
bin	3.2752e-06	21368
bin	3.3464e-06	12680
bin	3.4176e-06	14112
bin	3.4888e-06	16711
bin	3.56e-06	18478
bin	3.6312e-06	12034
bin	3.7024e-06	13899
bin	3.7736e-06	15393
bin	3.8448e-06	16067
bin	3.916e-06	14825
bin	3.9872e-06	13063
bin	4.0584e-06	17441
bin	4.1296e-06	12761
bin	4.2008e-06	12806
bin	4.272e-06	16911
bin	4.3432e-06	15306
bin	4.4144e-06	10713
bin	4.4856e-06	10948
bin	4.5568e-06	10997
bin	4.628e-06	15574
bin	4.6992e-06	10961
bin	4.7704e-06	11287
bin	4.8416e-06	15511
bin	4.9128e-06	11336
bin	4.984e-06	11436
bin	5.0552e-06	11366
bin	5.1264e-06	15740
bin	5.1976e-06	11211
bin	5.2688e-06	13650
bin	5.34e-06	11415
bin	5.4112e-06	16120
bin	5.4824e-06	11336
bin	5.5536e-06	12396
bin	5.6248e-06	15536
bin	5.696e-06	11183
bin	5.7672e-06	11317
bin	5.8384e-06	12313
bin	5.9096e-06	15592
bin	5.9808e-06	10956
bin	6.052e-06	11136
bin	6.1232e-06	12284
bin	6.1944e-06	15615
bin	6.2656e-06	10975
bin	6.3368e-06	12174
bin	6.408e-06	15261
bin	6.4792e-06	10812
bin	6.5504e-06	10820
bin	6.6216e-06	11740
bin	6.6928e-06	16308
bin	6.764e-06	11791
bin	6.8352e-06	10960
bin	6.9064e-06	11728
bin	6.9776e-06	16306
bin	7.0488e-06	10562
bin	7.12e-06	11841
bin	7.1912e-06	15118
bin	7.2624e-06	10640
bin	7.3336e-06	11199
bin	7.4048e-06	11369
bin	7.476e-06	15478
bin	7.5472e-06	11155
bin	7.6184e-06	10831
bin	7.6896e-06	10927
bin	7.7608e-06	15361
bin	7.832e-06	10627
bin	7.9032e-06	10488
bin	7.9744e-06	15353
bin	8.0456e-06	10636
bin	8.1168e-06	10785
bin	8.188e-06	10975
bin	8.2592e-06	10996
bin	8.3304e-06	10773
bin	8.4016e-06	10647
bin	8.4728e-06	10399
bin	8.544e-06	14892
bin	8.6152e-06	10722
bin	8.6864e-06	12805
bin	8.7576e-06	15269
bin	8.8288e-06	12851
bin	8.9e-06	10683
bin	8.9712e-06	10809
bin	9.0424e-06	15150
bin	9.1136e-06	10829
bin	9.1848e-06	11972
bin	9.256e-06	10735
bin	9.3272e-06	16019
bin	9.3984e-06	10764
bin	9.4696e-06	13015
bin	9.5408e-06	11136
bin	9.612e-06	10742
bin	9.6832e-06	10941
bin	9.7544e-06	10906
bin	9.8256e-06	13133
bin	9.8968e-06	10853
bin	9.968e-06	10928
bin	1.00392e-05	10958
bin	1.01104e-05	15072
bin	1.01816e-05	10848
bin	1.02528e-05	10780
bin	1.0324e-05	13196
bin	1.03952e-05	10900
bin	1.04664e-05	10830
bin	1.05376e-05	10859
bin	1.06088e-05	11038
bin	1.068e-05	10977
bin	1.07512e-05	11175
bin	1.08224e-05	11014
bin	1.08936e-05	13256
bin	1.09648e-05	11348
bin	1.1036e-05	11406
bin	1.11072e-05	15793
bin	1.11784e-05	11258
bin	1.12496e-05	11164
bin	1.13208e-05	11225
bin	1.1392e-05	13596
bin	1.14632e-05	11267
bin	1.15344e-05	11570
bin	1.16056e-05	11276
bin	1.16768e-05	15691
bin	1.1748e-05	11280
bin	1.18192e-05	11574
bin	1.18904e-05	13708
bin	1.19616e-05	11243
bin	1.20328e-05	11698
bin	1.2104e-05	11436
bin	1.21752e-05	15867
bin	1.22464e-05	11608
bin	1.23176e-05	11625
bin	1.23888e-05	11615
bin	1.246e-05	13734
bin	1.25312e-05	11477
bin	1.26024e-05	11624
bin	1.26736e-05	15796
bin	1.27448e-05	11423
bin	1.2816e-05	11552
bin	1.28872e-05	11608
bin	1.29584e-05	13597
bin	1.30296e-05	11551
bin	1.31008e-05	11760
bin	1.3172e-05	11531
bin	1.32432e-05	11466
bin	1.33144e-05	11534
bin	1.33856e-05	11596
bin	1.34568e-05	11612
bin	1.3528e-05	11364
bin	1.35992e-05	11565
bin	1.36704e-05	11418
bin	1.37416e-05	11587
bin	1.38128e-05	11326
bin	1.3884e-05	11218
bin	1.39552e-05	11346
bin	1.40264e-05	11207
bin	1.40976e-05	11461
bin	1.41688e-05	11340
bin	1.424e-05	11230
bin	1.43112e-05	11115
bin	1.43824e-05	11241
bin	1.44536e-05	11111
bin	1.45248e-05	11141
bin	1.4596e-05	11044
bin	1.46672e-05	11036
bin	1.47384e-05	10986
bin	1.48096e-05	10779
bin	1.48808e-05	10923
bin	1.4952e-05	11235
bin	1.50232e-05	11024
bin	1.50944e-05	10708
bin	1.51656e-05	10826
bin	1.52368e-05	11195
bin	1.5308e-05	11125
bin	1.53792e-05	10900
bin	1.54504e-05	11159
bin	1.55216e-05	11014
bin	1.55928e-05	10880
bin	1.5664e-05	10820
bin	1.57352e-05	10963
bin	1.58064e-05	11076
bin	1.58776e-05	10683
bin	1.59488e-05	10867
bin	1.602e-05	10771
bin	1.60912e-05	10982
bin	1.61624e-05	10819
bin	1.62336e-05	11005
bin	1.63048e-05	10759
bin	1.6376e-05	10909
bin	1.64472e-05	10823
bin	1.65184e-05	10835
bin	1.65896e-05	10803
bin	1.66608e-05	10676
bin	1.6732e-05	10785
bin	1.68032e-05	10755
bin	1.68744e-05	10888
bin	1.69456e-05	10654
bin	1.70168e-05	10625
bin	1.7088e-05	10562
bin	1.71592e-05	10541
bin	1.72304e-05	10524
bin	1.73016e-05	10625
bin	1.73728e-05	10512
bin	1.7444e-05	10462
bin	1.75152e-05	10385
bin	1.75864e-05	10620
bin	1.76576e-05	10476
bin	1.77288e-05	10490
bin	1.78e-05	10404
bin	1.78712e-05	10484
bin	1.79424e-05	10501
bin	1.80136e-05	10487
bin	1.80848e-05	10325
bin	1.8156e-05	10386
bin	1.82272e-05	10390
bin	1.82984e-05	10391
bin	1.83696e-05	10534
bin	1.84408e-05	10428
bin	1.8512e-05	10175
bin	1.85832e-05	10294
bin	1.86544e-05	10110
bin	1.87256e-05	10193
bin	1.87968e-05	10318
bin	1.8868e-05	10296
bin	1.89392e-05	10295
bin	1.90104e-05	10292
bin	1.90816e-05	10095
bin	1.91528e-05	10330
bin	1.9224e-05	10263
bin	1.92952e-05	9966
bin	1.93664e-05	10147
bin	1.94376e-05	10103
bin	1.95088e-05	10137
bin	1.958e-05	10015
bin	1.96512e-05	10223
bin	1.97224e-05	9995
bin	1.97936e-05	10129
bin	1.98648e-05	9810
bin	1.9936e-05	10212
bin	2.00072e-05	9948
bin	2.00784e-05	9825
bin	2.01496e-05	10021
bin	2.02208e-05	9824
bin	2.0292e-05	9891
bin	2.03632e-05	9829
bin	2.04344e-05	9751
bin	2.05056e-05	9670
bin	2.05768e-05	9846
bin	2.0648e-05	9543
bin	2.07192e-05	9944
bin	2.07904e-05	9675
bin	2.08616e-05	9634
bin	2.09328e-05	9619
bin	2.1004e-05	9693
bin	2.10752e-05	9606
bin	2.11464e-05	9428
bin	2.12176e-05	9519
bin	2.12888e-05	9432
bin	2.136e-05	9409
bin	2.14312e-05	9378
bin	2.15024e-05	9475
bin	2.15736e-05	9423
bin	2.16448e-05	9191
bin	2.1716e-05	9146
bin	2.17872e-05	9283
bin	2.18584e-05	9164
bin	2.19296e-05	9166
bin	2.20008e-05	9294
bin	2.2072e-05	9050
bin	2.21432e-05	9114
bin	2.22144e-05	8992
bin	2.22856e-05	8993
bin	2.23568e-05	9086
bin	2.2428e-05	8809
bin	2.24992e-05	8965
bin	2.25704e-05	8821
bin	2.26416e-05	8870
bin	2.27128e-05	8823
bin	2.2784e-05	8713
bin	2.28552e-05	8712
bin	2.29264e-05	8709
bin	2.29976e-05	8680
bin	2.30688e-05	8637
bin	2.314e-05	8693
bin	2.32112e-05	8358
bin	2.32824e-05	8554
bin	2.33536e-05	8347
bin	2.34248e-05	8481
bin	2.3496e-05	8468
bin	2.35672e-05	8302
bin	2.36384e-05	8418
bin	2.37096e-05	8232
bin	2.37808e-05	8385
bin	2.3852e-05	8223
bin	2.39232e-05	8188
bin	2.39944e-05	8132
bin	2.40656e-05	8172
bin	2.41368e-05	7971
bin	2.4208e-05	7986
bin	2.42792e-05	8019
bin	2.43504e-05	7865
bin	2.44216e-05	8004
bin	2.44928e-05	7933
bin	2.4564e-05	7872
bin	2.46352e-05	7945
bin	2.47064e-05	7667
bin	2.47776e-05	7728
bin	2.48488e-05	7943
bin	2.492e-05	7780
bin	2.49912e-05	7814
bin	2.50624e-05	7756
bin	2.51336e-05	7541
bin	2.52048e-05	7703
bin	2.5276e-05	7613
bin	2.53472e-05	7569
bin	2.54184e-05	7604
bin	2.54896e-05	7612
bin	2.55608e-05	7355
bin	2.5632e-05	7468
bin	2.57032e-05	7334
bin	2.57744e-05	7292
bin	2.58456e-05	7362
bin	2.59168e-05	7195
bin	2.5988e-05	7204
bin	2.60592e-05	7211
bin	2.61304e-05	7331
bin	2.62016e-05	7276
bin	2.62728e-05	7123
bin	2.6344e-05	6994
bin	2.64152e-05	7126
bin	2.64864e-05	6977
bin	2.65576e-05	7035
bin	2.66288e-05	7089
bin	2.67e-05	6943
bin	2.67712e-05	6937
bin	2.68424e-05	6939
bin	2.69136e-05	6972
bin	2.69848e-05	6858
bin	2.7056e-05	6870
bin	2.71272e-05	6588
bin	2.71984e-05	6871
bin	2.72696e-05	6627
bin	2.73408e-05	6785
bin	2.7412e-05	6683
bin	2.74832e-05	6645
bin	2.75544e-05	6831
bin	2.76256e-05	6709
bin	2.76968e-05	6681
bin	2.7768e-05	6685
bin	2.78392e-05	6589
bin	2.79104e-05	6508
bin	2.79816e-05	6588
bin	2.80528e-05	6532
bin	2.8124e-05	6400
bin	2.81952e-05	6534
bin	2.82664e-05	6307
bin	2.83376e-05	6388
bin	2.84088e-05	6470
bin	2.848e-05	6468
bin	2.85512e-05	6334
bin	2.86224e-05	6270
bin	2.86936e-05	6187
bin	2.87648e-05	6271
bin	2.8836e-05	6232
bin	2.89072e-05	6122
bin	2.89784e-05	6237
bin	2.90496e-05	6052
bin	2.91208e-05	6109
bin	2.9192e-05	5965
bin	2.92632e-05	6130
bin	2.93344e-05	6066
bin	2.94056e-05	5961
bin	2.94768e-05	6020
bin	2.9548e-05	6116
bin	2.96192e-05	6064
bin	2.96904e-05	5969
bin	2.97616e-05	6043
bin	2.98328e-05	5840
bin	2.9904e-05	5964
bin	2.99752e-05	6002
bin	3.00464e-05	5958
bin	3.01176e-05	5975
bin	3.01888e-05	5786
bin	3.026e-05	5715
bin	3.03312e-05	5859
bin	3.04024e-05	5907
bin	3.04736e-05	5663
bin	3.05448e-05	5816
bin	3.0616e-05	5561
bin	3.06872e-05	5733
bin	3.07584e-05	5662
bin	3.08296e-05	5681
bin	3.09008e-05	5768
bin	3.0972e-05	5458
bin	3.10432e-05	5566
bin	3.11144e-05	5693
bin	3.11856e-05	5507
bin	3.12568e-05	5415
bin	3.1328e-05	5456
bin	3.13992e-05	5361
bin	3.14704e-05	5463
bin	3.15416e-05	5460
bin	3.16128e-05	5507
bin	3.1684e-05	5423
bin	3.17552e-05	5286
bin	3.18264e-05	5300
bin	3.18976e-05	5345
bin	3.19688e-05	5364
bin	3.204e-05	5174
bin	3.21112e-05	5256
bin	3.21824e-05	5207
bin	3.22536e-05	5289
bin	3.23248e-05	5065
bin	3.2396e-05	5118
bin	3.24672e-05	5179
bin	3.25384e-05	5052
bin	3.26096e-05	4899
bin	3.26808e-05	4992
bin	3.2752e-05	5038
bin	3.28232e-05	4946
bin	3.28944e-05	5125
bin	3.29656e-05	4834
bin	3.30368e-05	4852
bin	3.3108e-05	4895
bin	3.31792e-05	4888
bin	3.32504e-05	4845
bin	3.33216e-05	4769
bin	3.33928e-05	4755
bin	3.3464e-05	4947
bin	3.35352e-05	4868
bin	3.36064e-05	4724
bin	3.36776e-05	4800
bin	3.37488e-05	4608
bin	3.382e-05	4762
bin	3.38912e-05	4728
bin	3.39624e-05	4772
bin	3.40336e-05	4740
bin	3.41048e-05	4621
bin	3.4176e-05	4511
bin	3.42472e-05	4628
bin	3.43184e-05	4513
bin	3.43896e-05	4473
bin	3.44608e-05	4618
bin	3.4532e-05	4432
bin	3.46032e-05	4588
bin	3.46744e-05	4531
bin	3.47456e-05	4494
bin	3.48168e-05	4462
bin	3.4888e-05	4445
bin	3.49592e-05	4379
bin	3.50304e-05	4560
bin	3.51016e-05	4493
bin	3.51728e-05	4285
bin	3.5244e-05	4515
bin	3.53152e-05	4310
bin	3.53864e-05	4386
bin	3.54576e-05	4388
bin	3.55288e-05	4443
bin	3.56e-05	1558659
statistic Torus3d_bub.timer 	"Life Times"
field count 6291456
field mean 0.00012147247400172
field stddev 8.2605368728173e-05
field sum 764.23872539299
field sqrsum 0.1357646363774
field min 7.33332661e-07
field max 0.000607576333309
bin	-INF	0
bin	0	4906
bin	8.544e-07	22299
bin	1.7088e-06	32657
bin	2.5632e-06	24958
bin	3.4176e-06	26114
bin	4.272e-06	28162
bin	5.1264e-06	39865
bin	5.9808e-06	31215
bin	6.8352e-06	28576
bin	7.6896e-06	29431
bin	8.544e-06	42101
bin	9.3984e-06	36355
bin	1.02528e-05	29927
bin	1.11072e-05	49556
bin	1.19616e-05	37044
bin	1.2816e-05	30451
bin	1.36704e-05	28957
bin	1.45248e-05	27113
bin	1.53792e-05	31379
bin	1.62336e-05	28808
bin	1.7088e-05	27606
bin	1.79424e-05	26537
bin	1.87968e-05	24923
bin	1.96512e-05	24543
bin	2.05056e-05	25253
bin	2.136e-05	22540
bin	2.22144e-05	23465
bin	2.30688e-05	23257
bin	2.39232e-05	22809
bin	2.47776e-05	21982
bin	2.5632e-05	21462
bin	2.64864e-05	23913
bin	2.73408e-05	23724
bin	2.81952e-05	23163
bin	2.90496e-05	23695
bin	2.9904e-05	23373
bin	3.07584e-05	22994
bin	3.16128e-05	22601
bin	3.24672e-05	22625
bin	3.33216e-05	22634
bin	3.4176e-05	22519
bin	3.50304e-05	22710
bin	3.58848e-05	22338
bin	3.67392e-05	23659
bin	3.75936e-05	23373
bin	3.8448e-05	23668
bin	3.93024e-05	24183
bin	4.01568e-05	24027
bin	4.10112e-05	23865
bin	4.18656e-05	23991
bin	4.272e-05	23768
bin	4.35744e-05	23774
bin	4.44288e-05	23727
bin	4.52832e-05	23714
bin	4.61376e-05	24175
bin	4.6992e-05	24173
bin	4.78464e-05	23634
bin	4.87008e-05	23866
bin	4.95552e-05	24042
bin	5.04096e-05	23119
bin	5.1264e-05	22886
bin	5.21184e-05	22820
bin	5.29728e-05	22641
bin	5.38272e-05	22189
bin	5.46816e-05	22429
bin	5.5536e-05	21932
bin	5.63904e-05	21833
bin	5.72448e-05	21674
bin	5.80992e-05	21811
bin	5.89536e-05	22023
bin	5.9808e-05	21682
bin	6.06624e-05	21581
bin	6.15168e-05	21884
bin	6.23712e-05	21763
bin	6.32256e-05	21719
bin	6.408e-05	21924
bin	6.49344e-05	21763
bin	6.57888e-05	21781
bin	6.66432e-05	21957
bin	6.74976e-05	21774
bin	6.8352e-05	21747
bin	6.92064e-05	21691
bin	7.00608e-05	21558
bin	7.09152e-05	21630
bin	7.17696e-05	21723
bin	7.2624e-05	21934
bin	7.34784e-05	21835
bin	7.43328e-05	21432
bin	7.51872e-05	21826
bin	7.60416e-05	22168
bin	7.6896e-05	22286
bin	7.77504e-05	22234
bin	7.86048e-05	22097
bin	7.94592e-05	22213
bin	8.03136e-05	22513
bin	8.1168e-05	22618
bin	8.20224e-05	22344
bin	8.28768e-05	22350
bin	8.37312e-05	22239
bin	8.45856e-05	22436
bin	8.544e-05	22327
bin	8.62944e-05	22398
bin	8.71488e-05	22328
bin	8.80032e-05	22033
bin	8.88576e-05	21791
bin	8.9712e-05	21892
bin	9.05664e-05	21747
bin	9.14208e-05	22087
bin	9.22752e-05	21929
bin	9.31296e-05	22173
bin	9.3984e-05	22140
bin	9.48384e-05	22047
bin	9.56928e-05	21955
bin	9.65472e-05	22415
bin	9.74016e-05	22181
bin	9.8256e-05	22270
bin	9.91104e-05	22609
bin	9.99648e-05	22479
bin	0.0001008192	22382
bin	0.0001016736	22562
bin	0.000102528	22338
bin	0.0001033824	22168
bin	0.0001042368	22384
bin	0.0001050912	22350
bin	0.0001059456	22361
bin	0.0001068	22140
bin	0.0001076544	22262
bin	0.0001085088	22449
bin	0.0001093632	22577
bin	0.0001102176	22669
bin	0.000111072	22672
bin	0.0001119264	22511
bin	0.0001127808	22570
bin	0.0001136352	22606
bin	0.0001144896	22511
bin	0.000115344	22284
bin	0.0001161984	22366
bin	0.0001170528	22275
bin	0.0001179072	22384
bin	0.0001187616	22160
bin	0.000119616	22354
bin	0.0001204704	22286
bin	0.0001213248	22235
bin	0.0001221792	22255
bin	0.0001230336	22268
bin	0.000123888	22324
bin	0.0001247424	22015
bin	0.0001255968	21989
bin	0.0001264512	21867
bin	0.0001273056	21955
bin	0.00012816	21635
bin	0.0001290144	21778
bin	0.0001298688	21746
bin	0.0001307232	21922
bin	0.0001315776	21820
bin	0.000132432	21734
bin	0.0001332864	21714
bin	0.0001341408	21673
bin	0.0001349952	21525
bin	0.0001358496	21375
bin	0.000136704	21401
bin	0.0001375584	21497
bin	0.0001384128	21150
bin	0.0001392672	20973
bin	0.0001401216	20824
bin	0.000140976	20799
bin	0.0001418304	20965
bin	0.0001426848	20848
bin	0.0001435392	20726
bin	0.0001443936	20850
bin	0.000145248	20428
bin	0.0001461024	20433
bin	0.0001469568	20358
bin	0.0001478112	20326
bin	0.0001486656	20187
bin	0.00014952	20072
bin	0.0001503744	20080
bin	0.0001512288	19859
bin	0.0001520832	19995
bin	0.0001529376	19764
bin	0.000153792	19756
bin	0.0001546464	19666
bin	0.0001555008	19330
bin	0.0001563552	19449
bin	0.0001572096	19387
bin	0.000158064	19419
bin	0.0001589184	19451
bin	0.0001597728	19237
bin	0.0001606272	19286
bin	0.0001614816	19210
bin	0.000162336	19374
bin	0.0001631904	19232
bin	0.0001640448	19229
bin	0.0001648992	18986
bin	0.0001657536	18736
bin	0.000166608	18678
bin	0.0001674624	18597
bin	0.0001683168	18680
bin	0.0001691712	18430
bin	0.0001700256	18353
bin	0.00017088	18298
bin	0.0001717344	17936
bin	0.0001725888	18137
bin	0.0001734432	17879
bin	0.0001742976	18192
bin	0.000175152	17826
bin	0.0001760064	17784
bin	0.0001768608	17518
bin	0.0001777152	17506
bin	0.0001785696	17495
bin	0.000179424	17537
bin	0.0001802784	17490
bin	0.0001811328	17513
bin	0.0001819872	17353
bin	0.0001828416	16848
bin	0.000183696	16804
bin	0.0001845504	16822
bin	0.0001854048	16674
bin	0.0001862592	16516
bin	0.0001871136	16443
bin	0.000187968	16387
bin	0.0001888224	16221
bin	0.0001896768	16299
bin	0.0001905312	16283
bin	0.0001913856	15915
bin	0.00019224	15809
bin	0.0001930944	15738
bin	0.0001939488	15579
bin	0.0001948032	15617
bin	0.0001956576	15467
bin	0.000196512	15550
bin	0.0001973664	15438
bin	0.0001982208	15231
bin	0.0001990752	15089
bin	0.0001999296	15210
bin	0.000200784	15053
bin	0.0002016384	14956
bin	0.0002024928	14843
bin	0.0002033472	14838
bin	0.0002042016	14446
bin	0.000205056	14638
bin	0.0002059104	14254
bin	0.0002067648	14093
bin	0.0002076192	14170
bin	0.0002084736	13924
bin	0.000209328	13742
bin	0.0002101824	13728
bin	0.0002110368	13636
bin	0.0002118912	13432
bin	0.0002127456	13218
bin	0.0002136	13098
bin	0.0002144544	13059
bin	0.0002153088	13074
bin	0.0002161632	13056
bin	0.0002170176	12655
bin	0.000217872	12919
bin	0.0002187264	12652
bin	0.0002195808	12407
bin	0.0002204352	12322
bin	0.0002212896	12249
bin	0.000222144	12331
bin	0.0002229984	12348
bin	0.0002238528	12219
bin	0.0002247072	12074
bin	0.0002255616	12032
bin	0.000226416	11834
bin	0.0002272704	11613
bin	0.0002281248	11607
bin	0.0002289792	11524
bin	0.0002298336	11461
bin	0.000230688	11165
bin	0.0002315424	11132
bin	0.0002323968	10991
bin	0.0002332512	10720
bin	0.0002341056	10752
bin	0.00023496	10602
bin	0.0002358144	10389
bin	0.0002366688	10241
bin	0.0002375232	10021
bin	0.0002383776	9766
bin	0.000239232	9687
bin	0.0002400864	9439
bin	0.0002409408	9317
bin	0.0002417952	9156
bin	0.0002426496	9087
bin	0.000243504	8777
bin	0.0002443584	8759
bin	0.0002452128	8575
bin	0.0002460672	8618
bin	0.0002469216	8413
bin	0.000247776	8280
bin	0.0002486304	8208
bin	0.0002494848	8057
bin	0.0002503392	7936
bin	0.0002511936	7764
bin	0.000252048	7899
bin	0.0002529024	7631
bin	0.0002537568	7671
bin	0.0002546112	7436
bin	0.0002554656	7388
bin	0.00025632	7310
bin	0.0002571744	7367
bin	0.0002580288	7299
bin	0.0002588832	6993
bin	0.0002597376	6964
bin	0.000260592	6885
bin	0.0002614464	6738
bin	0.0002623008	6646
bin	0.0002631552	6499
bin	0.0002640096	6488
bin	0.000264864	6393
bin	0.0002657184	6147
bin	0.0002665728	6052
bin	0.0002674272	6046
bin	0.0002682816	5966
bin	0.000269136	5864
bin	0.0002699904	5815
bin	0.0002708448	5638
bin	0.0002716992	5423
bin	0.0002725536	5348
bin	0.000273408	5240
bin	0.0002742624	5275
bin	0.0002751168	5277
bin	0.0002759712	5174
bin	0.0002768256	5135
bin	0.00027768	5028
bin	0.0002785344	4863
bin	0.0002793888	4815
bin	0.0002802432	4766
bin	0.0002810976	4706
bin	0.000281952	4524
bin	0.0002828064	4493
bin	0.0002836608	4522
bin	0.0002845152	4485
bin	0.0002853696	4359
bin	0.000286224	4312
bin	0.0002870784	4198
bin	0.0002879328	4042
bin	0.0002887872	4015
bin	0.0002896416	4012
bin	0.000290496	3895
bin	0.0002913504	3793
bin	0.0002922048	3779
bin	0.0002930592	3524
bin	0.0002939136	3541
bin	0.000294768	3404
bin	0.0002956224	3462
bin	0.0002964768	3389
bin	0.0002973312	3365
bin	0.0002981856	3295
bin	0.00029904	3204
bin	0.0002998944	3170
bin	0.0003007488	2987
bin	0.0003016032	2991
bin	0.0003024576	3016
bin	0.000303312	2934
bin	0.0003041664	2955
bin	0.0003050208	2803
bin	0.0003058752	2790
bin	0.0003067296	2739
bin	0.000307584	2618
bin	0.0003084384	2533
bin	0.0003092928	2458
bin	0.0003101472	2501
bin	0.0003110016	2403
bin	0.000311856	2340
bin	0.0003127104	2214
bin	0.0003135648	2195
bin	0.0003144192	2172
bin	0.0003152736	2175
bin	0.000316128	2114
bin	0.0003169824	2040
bin	0.0003178368	2046
bin	0.0003186912	1960
bin	0.0003195456	1986
bin	0.0003204	1945
bin	0.0003212544	1926
bin	0.0003221088	1855
bin	0.0003229632	1813
bin	0.0003238176	1682
bin	0.000324672	1748
bin	0.0003255264	1715
bin	0.0003263808	1711
bin	0.0003272352	1707
bin	0.0003280896	1676
bin	0.000328944	1631
bin	0.0003297984	1558
bin	0.0003306528	1501
bin	0.0003315072	1507
bin	0.0003323616	1506
bin	0.000333216	1522
bin	0.0003340704	1457
bin	0.0003349248	1456
bin	0.0003357792	1347
bin	0.0003366336	1409
bin	0.000337488	1355
bin	0.0003383424	1295
bin	0.0003391968	1275
bin	0.0003400512	1246
bin	0.0003409056	1251
bin	0.00034176	1229
bin	0.0003426144	1150
bin	0.0003434688	1162
bin	0.0003443232	1174
bin	0.0003451776	1136
bin	0.000346032	1130
bin	0.0003468864	1080
bin	0.0003477408	1071
bin	0.0003485952	1035
bin	0.0003494496	1065
bin	0.000350304	1024
bin	0.0003511584	958
bin	0.0003520128	1011
bin	0.0003528672	948
bin	0.0003537216	909
bin	0.000354576	923
bin	0.0003554304	896
bin	0.0003562848	886
bin	0.0003571392	836
bin	0.0003579936	787
bin	0.000358848	818
bin	0.0003597024	786
bin	0.0003605568	767
bin	0.0003614112	765
bin	0.0003622656	709
bin	0.00036312	723
bin	0.0003639744	644
bin	0.0003648288	635
bin	0.0003656832	636
bin	0.0003665376	624
bin	0.000367392	651
bin	0.0003682464	599
bin	0.0003691008	596
bin	0.0003699552	604
bin	0.0003708096	575
bin	0.000371664	557
bin	0.0003725184	528
bin	0.0003733728	532
bin	0.0003742272	551
bin	0.0003750816	549
bin	0.000375936	525
bin	0.0003767904	512
bin	0.0003776448	486
bin	0.0003784992	497
bin	0.0003793536	514
bin	0.000380208	539
bin	0.0003810624	477
bin	0.0003819168	516
bin	0.0003827712	469
bin	0.0003836256	442
bin	0.00038448	435
bin	0.0003853344	446
bin	0.0003861888	448
bin	0.0003870432	411
bin	0.0003878976	399
bin	0.000388752	386
bin	0.0003896064	375
bin	0.0003904608	351
bin	0.0003913152	405
bin	0.0003921696	365
bin	0.000393024	380
bin	0.0003938784	346
bin	0.0003947328	318
bin	0.0003955872	318
bin	0.0003964416	312
bin	0.000397296	317
bin	0.0003981504	295
bin	0.0003990048	309
bin	0.0003998592	284
bin	0.0004007136	282
bin	0.000401568	267
bin	0.0004024224	262
bin	0.0004032768	285
bin	0.0004041312	235
bin	0.0004049856	240
bin	0.00040584	215
bin	0.0004066944	249
bin	0.0004075488	228
bin	0.0004084032	229
bin	0.0004092576	225
bin	0.000410112	192
bin	0.0004109664	208
bin	0.0004118208	201
bin	0.0004126752	186
bin	0.0004135296	210
bin	0.000414384	191
bin	0.0004152384	196
bin	0.0004160928	180
bin	0.0004169472	170
bin	0.0004178016	180
bin	0.000418656	157
bin	0.0004195104	147
bin	0.0004203648	158
bin	0.0004212192	142
bin	0.0004220736	121
bin	0.000422928	152
bin	0.0004237824	150
bin	0.0004246368	117
bin	0.0004254912	103
bin	0.0004263456	93
bin	0.0004272	3045
