version 2
run Butterfly-187-20120709-15:19:53-24319
attr alg 3
attr buf 8
attr configname Butterfly
attr datetime 20120709-15:19:53
attr delta 2.2
attr experiment Butterfly
attr ext false
attr inifile altro.ini
attr iterationvars "$buf=8, $ext=false, $ofedge=2, $delta=2.2, $alg=3"
attr iterationvars2 "$buf=8, $ext=false, $ofedge=2, $delta=2.2, $alg=3, $repetition=0"
attr measurement "$buf=8, $ext=false, $ofedge=2, $delta=2.2, $alg=3"
attr network Torus3d_bub
attr ofedge 2
attr processid 24319
attr repetition 0
attr replication #0
attr resultdir altro-results
attr runnumber 187
attr seedset 187

scalar . 	alg 	3
scalar . 	buf 	8
scalar . 	delta 	2.2
scalar . 	ofedge 	2
scalar Torus3d_bub.timer 	#endTime 	0.001070768331683
scalar Torus3d_bub.timer 	#totalHops 	46163670
scalar Torus3d_bub.timer 	#totalPacks 	6291456
scalar Torus3d_bub.timer 	#totalDerouted 	3946538
scalar Torus3d_bub.timer 	#totalOutFlanked 	3744931
scalar Torus3d_bub.timer 	#totalCQRed 	201607
scalar Torus3d_bub.timer 	#LB 	0.000786432
scalar Torus3d_bub.timer 	#ratio 	0.73445578910978
statistic Torus3d_bub.timer 	"Hop Times"
field count 6291456
field mean 5.8558567068928e-05
field stddev 8.0532180528044e-05
field sum 368.41864813721
field sqrsum 0.062376872332877
field min 5.2e-07
field max 0.000739559422913
bin	-INF	0
bin	0	0
bin	7.12e-08	0
bin	1.424e-07	0
bin	2.136e-07	0
bin	2.848e-07	0
bin	3.56e-07	0
bin	4.272e-07	0
bin	4.984e-07	4096
bin	5.696e-07	0
bin	6.408e-07	2048
bin	7.12e-07	4096
bin	7.832e-07	0
bin	8.544e-07	0
bin	9.256e-07	4097
bin	9.968e-07	8195
bin	1.068e-06	5
bin	1.1392e-06	2064
bin	1.2104e-06	3148
bin	1.2816e-06	6616
bin	1.3528e-06	10903
bin	1.424e-06	7532
bin	1.4952e-06	6630
bin	1.5664e-06	14004
bin	1.6376e-06	5431
bin	1.7088e-06	11934
bin	1.78e-06	15193
bin	1.8512e-06	9924
bin	1.9224e-06	11240
bin	1.9936e-06	10837
bin	2.0648e-06	16842
bin	2.136e-06	12300
bin	2.2072e-06	9664
bin	2.2784e-06	14828
bin	2.3496e-06	11701
bin	2.4208e-06	13865
bin	2.492e-06	15569
bin	2.5632e-06	14400
bin	2.6344e-06	13886
bin	2.7056e-06	6219
bin	2.7768e-06	6697
bin	2.848e-06	9830
bin	2.9192e-06	6829
bin	2.9904e-06	4754
bin	3.0616e-06	12079
bin	3.1328e-06	5491
bin	3.204e-06	5869
bin	3.2752e-06	5043
bin	3.3464e-06	10375
bin	3.4176e-06	9649
bin	3.4888e-06	6887
bin	3.56e-06	5614
bin	3.6312e-06	10430
bin	3.7024e-06	5627
bin	3.7736e-06	6308
bin	3.8448e-06	9651
bin	3.916e-06	5980
bin	3.9872e-06	5329
bin	4.0584e-06	5437
bin	4.1296e-06	9343
bin	4.2008e-06	5192
bin	4.272e-06	5234
bin	4.3432e-06	4980
bin	4.4144e-06	9215
bin	4.4856e-06	5044
bin	4.5568e-06	4705
bin	4.628e-06	9237
bin	4.6992e-06	5514
bin	4.7704e-06	4847
bin	4.8416e-06	4927
bin	4.9128e-06	9107
bin	4.984e-06	6899
bin	5.0552e-06	5290
bin	5.1264e-06	4941
bin	5.1976e-06	9206
bin	5.2688e-06	5207
bin	5.34e-06	4864
bin	5.4112e-06	9145
bin	5.4824e-06	5032
bin	5.5536e-06	5030
bin	5.6248e-06	5207
bin	5.696e-06	9052
bin	5.7672e-06	5168
bin	5.8384e-06	5417
bin	5.9096e-06	5250
bin	5.9808e-06	9483
bin	6.052e-06	5332
bin	6.1232e-06	5098
bin	6.1944e-06	9424
bin	6.2656e-06	5510
bin	6.3368e-06	5468
bin	6.408e-06	5430
bin	6.4792e-06	9473
bin	6.5504e-06	5518
bin	6.6216e-06	5553
bin	6.6928e-06	5190
bin	6.764e-06	9501
bin	6.8352e-06	5389
bin	6.9064e-06	5245
bin	6.9776e-06	9548
bin	7.0488e-06	5539
bin	7.12e-06	5310
bin	7.1912e-06	5373
bin	7.2624e-06	9720
bin	7.3336e-06	5474
bin	7.4048e-06	5678
bin	7.476e-06	5351
bin	7.5472e-06	9739
bin	7.6184e-06	5606
bin	7.6896e-06	5402
bin	7.7608e-06	9607
bin	7.832e-06	5560
bin	7.9032e-06	5412
bin	7.9744e-06	5384
bin	8.0456e-06	7531
bin	8.1168e-06	5464
bin	8.188e-06	5509
bin	8.2592e-06	5508
bin	8.3304e-06	9802
bin	8.4016e-06	5629
bin	8.4728e-06	5395
bin	8.544e-06	9579
bin	8.6152e-06	5631
bin	8.6864e-06	5567
bin	8.7576e-06	5656
bin	8.8288e-06	9822
bin	8.9e-06	5682
bin	8.9712e-06	5965
bin	9.0424e-06	5728
bin	9.1136e-06	7894
bin	9.1848e-06	5921
bin	9.256e-06	5852
bin	9.3272e-06	9792
bin	9.3984e-06	6181
bin	9.4696e-06	5962
bin	9.5408e-06	6037
bin	9.612e-06	10191
bin	9.6832e-06	5842
bin	9.7544e-06	6020
bin	9.8256e-06	5910
bin	9.8968e-06	5944
bin	9.968e-06	6030
bin	1.00392e-05	5894
bin	1.01104e-05	10040
bin	1.01816e-05	6036
bin	1.02528e-05	5912
bin	1.0324e-05	5897
bin	1.03952e-05	8138
bin	1.04664e-05	5893
bin	1.05376e-05	5980
bin	1.06088e-05	5971
bin	1.068e-05	7964
bin	1.07512e-05	6113
bin	1.08224e-05	5829
bin	1.08936e-05	7837
bin	1.09648e-05	5974
bin	1.1036e-05	5827
bin	1.11072e-05	5691
bin	1.11784e-05	9905
bin	1.12496e-05	5832
bin	1.13208e-05	5922
bin	1.1392e-05	5801
bin	1.14632e-05	9936
bin	1.15344e-05	5741
bin	1.16056e-05	5780
bin	1.16768e-05	9727
bin	1.1748e-05	5905
bin	1.18192e-05	5896
bin	1.18904e-05	5809
bin	1.19616e-05	9967
bin	1.20328e-05	5680
bin	1.2104e-05	5955
bin	1.21752e-05	5829
bin	1.22464e-05	10011
bin	1.23176e-05	5953
bin	1.23888e-05	5673
bin	1.246e-05	7924
bin	1.25312e-05	5892
bin	1.26024e-05	5844
bin	1.26736e-05	5827
bin	1.27448e-05	5814
bin	1.2816e-05	5758
bin	1.28872e-05	5945
bin	1.29584e-05	5827
bin	1.30296e-05	6010
bin	1.31008e-05	6039
bin	1.3172e-05	5849
bin	1.32432e-05	5935
bin	1.33144e-05	6021
bin	1.33856e-05	6033
bin	1.34568e-05	5819
bin	1.3528e-05	5953
bin	1.35992e-05	5903
bin	1.36704e-05	6095
bin	1.37416e-05	5859
bin	1.38128e-05	5892
bin	1.3884e-05	6032
bin	1.39552e-05	5992
bin	1.40264e-05	5889
bin	1.40976e-05	5954
bin	1.41688e-05	5802
bin	1.424e-05	5802
bin	1.43112e-05	5982
bin	1.43824e-05	5834
bin	1.44536e-05	5961
bin	1.45248e-05	5769
bin	1.4596e-05	5858
bin	1.46672e-05	5875
bin	1.47384e-05	5899
bin	1.48096e-05	5777
bin	1.48808e-05	5937
bin	1.4952e-05	5827
bin	1.50232e-05	5909
bin	1.50944e-05	6026
bin	1.51656e-05	6005
bin	1.52368e-05	6015
bin	1.5308e-05	5879
bin	1.53792e-05	6077
bin	1.54504e-05	5945
bin	1.55216e-05	5870
bin	1.55928e-05	5876
bin	1.5664e-05	5952
bin	1.57352e-05	6078
bin	1.58064e-05	5822
bin	1.58776e-05	6017
bin	1.59488e-05	5884
bin	1.602e-05	5996
bin	1.60912e-05	6039
bin	1.61624e-05	6035
bin	1.62336e-05	6080
bin	1.63048e-05	5980
bin	1.6376e-05	5940
bin	1.64472e-05	6063
bin	1.65184e-05	6116
bin	1.65896e-05	5909
bin	1.66608e-05	6074
bin	1.6732e-05	6012
bin	1.68032e-05	6176
bin	1.68744e-05	6049
bin	1.69456e-05	6034
bin	1.70168e-05	5949
bin	1.7088e-05	5991
bin	1.71592e-05	5929
bin	1.72304e-05	6130
bin	1.73016e-05	6111
bin	1.73728e-05	6093
bin	1.7444e-05	5951
bin	1.75152e-05	6041
bin	1.75864e-05	6191
bin	1.76576e-05	6093
bin	1.77288e-05	6186
bin	1.78e-05	6168
bin	1.78712e-05	6199
bin	1.79424e-05	6091
bin	1.80136e-05	6369
bin	1.80848e-05	6254
bin	1.8156e-05	6127
bin	1.82272e-05	6103
bin	1.82984e-05	6217
bin	1.83696e-05	6250
bin	1.84408e-05	6241
bin	1.8512e-05	6157
bin	1.85832e-05	6235
bin	1.86544e-05	6268
bin	1.87256e-05	6066
bin	1.87968e-05	6245
bin	1.8868e-05	6272
bin	1.89392e-05	6218
bin	1.90104e-05	6491
bin	1.90816e-05	6301
bin	1.91528e-05	6292
bin	1.9224e-05	6464
bin	1.92952e-05	6354
bin	1.93664e-05	6312
bin	1.94376e-05	6247
bin	1.95088e-05	6314
bin	1.958e-05	6399
bin	1.96512e-05	6452
bin	1.97224e-05	6387
bin	1.97936e-05	6387
bin	1.98648e-05	6430
bin	1.9936e-05	6354
bin	2.00072e-05	6440
bin	2.00784e-05	6345
bin	2.01496e-05	6399
bin	2.02208e-05	6295
bin	2.0292e-05	6397
bin	2.03632e-05	6315
bin	2.04344e-05	6457
bin	2.05056e-05	6410
bin	2.05768e-05	6496
bin	2.0648e-05	6426
bin	2.07192e-05	6333
bin	2.07904e-05	6289
bin	2.08616e-05	6564
bin	2.09328e-05	6486
bin	2.1004e-05	6282
bin	2.10752e-05	6223
bin	2.11464e-05	6454
bin	2.12176e-05	6506
bin	2.12888e-05	6439
bin	2.136e-05	6406
bin	2.14312e-05	6317
bin	2.15024e-05	6345
bin	2.15736e-05	6548
bin	2.16448e-05	6390
bin	2.1716e-05	6531
bin	2.17872e-05	6572
bin	2.18584e-05	6316
bin	2.19296e-05	6680
bin	2.20008e-05	6350
bin	2.2072e-05	6389
bin	2.21432e-05	6557
bin	2.22144e-05	6533
bin	2.22856e-05	6307
bin	2.23568e-05	6457
bin	2.2428e-05	6429
bin	2.24992e-05	6316
bin	2.25704e-05	6287
bin	2.26416e-05	6373
bin	2.27128e-05	6433
bin	2.2784e-05	6521
bin	2.28552e-05	6424
bin	2.29264e-05	6472
bin	2.29976e-05	6408
bin	2.30688e-05	6451
bin	2.314e-05	6588
bin	2.32112e-05	6476
bin	2.32824e-05	6422
bin	2.33536e-05	6428
bin	2.34248e-05	6480
bin	2.3496e-05	6410
bin	2.35672e-05	6523
bin	2.36384e-05	6415
bin	2.37096e-05	6477
bin	2.37808e-05	6511
bin	2.3852e-05	6406
bin	2.39232e-05	6544
bin	2.39944e-05	6301
bin	2.40656e-05	6487
bin	2.41368e-05	6411
bin	2.4208e-05	6369
bin	2.42792e-05	6471
bin	2.43504e-05	6504
bin	2.44216e-05	6442
bin	2.44928e-05	6400
bin	2.4564e-05	6432
bin	2.46352e-05	6469
bin	2.47064e-05	6515
bin	2.47776e-05	6234
bin	2.48488e-05	6423
bin	2.492e-05	6337
bin	2.49912e-05	6375
bin	2.50624e-05	6428
bin	2.51336e-05	6565
bin	2.52048e-05	6548
bin	2.5276e-05	6643
bin	2.53472e-05	6552
bin	2.54184e-05	6454
bin	2.54896e-05	6551
bin	2.55608e-05	6403
bin	2.5632e-05	6434
bin	2.57032e-05	6587
bin	2.57744e-05	6621
bin	2.58456e-05	6514
bin	2.59168e-05	6623
bin	2.5988e-05	6450
bin	2.60592e-05	6633
bin	2.61304e-05	6605
bin	2.62016e-05	6694
bin	2.62728e-05	6663
bin	2.6344e-05	6586
bin	2.64152e-05	6555
bin	2.64864e-05	6657
bin	2.65576e-05	6600
bin	2.66288e-05	6507
bin	2.67e-05	6607
bin	2.67712e-05	6621
bin	2.68424e-05	6500
bin	2.69136e-05	6706
bin	2.69848e-05	6455
bin	2.7056e-05	6477
bin	2.71272e-05	6543
bin	2.71984e-05	6702
bin	2.72696e-05	6802
bin	2.73408e-05	6590
bin	2.7412e-05	6514
bin	2.74832e-05	6701
bin	2.75544e-05	6556
bin	2.76256e-05	6676
bin	2.76968e-05	6584
bin	2.7768e-05	6752
bin	2.78392e-05	6657
bin	2.79104e-05	6596
bin	2.79816e-05	6797
bin	2.80528e-05	6664
bin	2.8124e-05	6640
bin	2.81952e-05	6655
bin	2.82664e-05	6735
bin	2.83376e-05	6683
bin	2.84088e-05	6652
bin	2.848e-05	6688
bin	2.85512e-05	6698
bin	2.86224e-05	6807
bin	2.86936e-05	6656
bin	2.87648e-05	6639
bin	2.8836e-05	6685
bin	2.89072e-05	6569
bin	2.89784e-05	6702
bin	2.90496e-05	6517
bin	2.91208e-05	6668
bin	2.9192e-05	6524
bin	2.92632e-05	6542
bin	2.93344e-05	6706
bin	2.94056e-05	6622
bin	2.94768e-05	6654
bin	2.9548e-05	6553
bin	2.96192e-05	6634
bin	2.96904e-05	6378
bin	2.97616e-05	6494
bin	2.98328e-05	6464
bin	2.9904e-05	6626
bin	2.99752e-05	6338
bin	3.00464e-05	6602
bin	3.01176e-05	6455
bin	3.01888e-05	6569
bin	3.026e-05	6489
bin	3.03312e-05	6754
bin	3.04024e-05	6703
bin	3.04736e-05	6698
bin	3.05448e-05	6621
bin	3.0616e-05	6801
bin	3.06872e-05	6802
bin	3.07584e-05	6432
bin	3.08296e-05	6578
bin	3.09008e-05	6599
bin	3.0972e-05	6606
bin	3.10432e-05	6471
bin	3.11144e-05	6741
bin	3.11856e-05	6520
bin	3.12568e-05	6580
bin	3.1328e-05	6542
bin	3.13992e-05	6536
bin	3.14704e-05	6655
bin	3.15416e-05	6587
bin	3.16128e-05	6681
bin	3.1684e-05	6600
bin	3.17552e-05	6745
bin	3.18264e-05	6424
bin	3.18976e-05	6933
bin	3.19688e-05	6532
bin	3.204e-05	6630
bin	3.21112e-05	6628
bin	3.21824e-05	6511
bin	3.22536e-05	6689
bin	3.23248e-05	6493
bin	3.2396e-05	6708
bin	3.24672e-05	6743
bin	3.25384e-05	6634
bin	3.26096e-05	6519
bin	3.26808e-05	6712
bin	3.2752e-05	6645
bin	3.28232e-05	6709
bin	3.28944e-05	6687
bin	3.29656e-05	6705
bin	3.30368e-05	6915
bin	3.3108e-05	6738
bin	3.31792e-05	6665
bin	3.32504e-05	6595
bin	3.33216e-05	6754
bin	3.33928e-05	6549
bin	3.3464e-05	6782
bin	3.35352e-05	6670
bin	3.36064e-05	6633
bin	3.36776e-05	6680
bin	3.37488e-05	6617
bin	3.382e-05	6733
bin	3.38912e-05	6454
bin	3.39624e-05	6645
bin	3.40336e-05	6550
bin	3.41048e-05	6679
bin	3.4176e-05	6418
bin	3.42472e-05	6736
bin	3.43184e-05	6511
bin	3.43896e-05	6559
bin	3.44608e-05	6605
bin	3.4532e-05	6712
bin	3.46032e-05	6759
bin	3.46744e-05	6473
bin	3.47456e-05	6523
bin	3.48168e-05	6699
bin	3.4888e-05	6586
bin	3.49592e-05	6643
bin	3.50304e-05	6704
bin	3.51016e-05	6679
bin	3.51728e-05	6653
bin	3.5244e-05	6630
bin	3.53152e-05	6591
bin	3.53864e-05	6774
bin	3.54576e-05	6529
bin	3.55288e-05	6561
bin	3.56e-05	3037569
statistic Torus3d_bub.timer 	"Life Times"
field count 6291456
field mean 0.00026057770903358
field stddev 0.00015793231309436
field sum 1639.4131909656
field sqrsum 0.58411987658344
field min 5.2e-07
field max 0.000813071756292
bin	-INF	0
bin	0	8192
bin	8.544e-07	12288
bin	1.7088e-06	19461
bin	2.5632e-06	25624
bin	3.4176e-06	24634
bin	4.272e-06	18678
bin	5.1264e-06	20868
bin	5.9808e-06	21316
bin	6.8352e-06	17674
bin	7.6896e-06	19616
bin	8.544e-06	18848
bin	9.3984e-06	22342
bin	1.02528e-05	17095
bin	1.11072e-05	23639
bin	1.19616e-05	30965
bin	1.2816e-05	17869
bin	1.36704e-05	13968
bin	1.45248e-05	13487
bin	1.53792e-05	13957
bin	1.62336e-05	9223
bin	1.7088e-05	5090
bin	1.79424e-05	12486
bin	1.87968e-05	10014
bin	1.96512e-05	11693
bin	2.05056e-05	11480
bin	2.136e-05	7802
bin	2.22144e-05	7728
bin	2.30688e-05	8750
bin	2.39232e-05	8880
bin	2.47776e-05	9139
bin	2.5632e-05	8676
bin	2.64864e-05	8402
bin	2.73408e-05	8838
bin	2.81952e-05	9840
bin	2.90496e-05	8991
bin	2.9904e-05	9273
bin	3.07584e-05	9349
bin	3.16128e-05	9479
bin	3.24672e-05	9733
bin	3.33216e-05	9106
bin	3.4176e-05	9369
bin	3.50304e-05	9732
bin	3.58848e-05	9427
bin	3.67392e-05	9315
bin	3.75936e-05	9811
bin	3.8448e-05	9419
bin	3.93024e-05	9590
bin	4.01568e-05	9670
bin	4.10112e-05	9741
bin	4.18656e-05	10117
bin	4.272e-05	9823
bin	4.35744e-05	10382
bin	4.44288e-05	10763
bin	4.52832e-05	10236
bin	4.61376e-05	10409
bin	4.6992e-05	10608
bin	4.78464e-05	10421
bin	4.87008e-05	10441
bin	4.95552e-05	10336
bin	5.04096e-05	10624
bin	5.1264e-05	10525
bin	5.21184e-05	10491
bin	5.29728e-05	10595
bin	5.38272e-05	10643
bin	5.46816e-05	10156
bin	5.5536e-05	10336
bin	5.63904e-05	10066
bin	5.72448e-05	10106
bin	5.80992e-05	10029
bin	5.89536e-05	9884
bin	5.9808e-05	10088
bin	6.06624e-05	10300
bin	6.15168e-05	10036
bin	6.23712e-05	10142
bin	6.32256e-05	10179
bin	6.408e-05	9762
bin	6.49344e-05	9924
bin	6.57888e-05	9625
bin	6.66432e-05	9674
bin	6.74976e-05	9395
bin	6.8352e-05	9391
bin	6.92064e-05	9225
bin	7.00608e-05	9372
bin	7.09152e-05	9243
bin	7.17696e-05	9206
bin	7.2624e-05	9121
bin	7.34784e-05	9069
bin	7.43328e-05	9137
bin	7.51872e-05	8998
bin	7.60416e-05	9193
bin	7.6896e-05	9279
bin	7.77504e-05	8986
bin	7.86048e-05	9173
bin	7.94592e-05	9155
bin	8.03136e-05	8878
bin	8.1168e-05	8929
bin	8.20224e-05	9061
bin	8.28768e-05	9157
bin	8.37312e-05	9153
bin	8.45856e-05	8779
bin	8.544e-05	9170
bin	8.62944e-05	8910
bin	8.71488e-05	8840
bin	8.80032e-05	8999
bin	8.88576e-05	9077
bin	8.9712e-05	9043
bin	9.05664e-05	9003
bin	9.14208e-05	9090
bin	9.22752e-05	8983
bin	9.31296e-05	9033
bin	9.3984e-05	8989
bin	9.48384e-05	9193
bin	9.56928e-05	9314
bin	9.65472e-05	9163
bin	9.74016e-05	9211
bin	9.8256e-05	9226
bin	9.91104e-05	9133
bin	9.99648e-05	9298
bin	0.0001008192	9121
bin	0.0001016736	9053
bin	0.000102528	9172
bin	0.0001033824	9033
bin	0.0001042368	9118
bin	0.0001050912	9245
bin	0.0001059456	9060
bin	0.0001068	9176
bin	0.0001076544	9246
bin	0.0001085088	9238
bin	0.0001093632	9269
bin	0.0001102176	9127
bin	0.000111072	9222
bin	0.0001119264	9172
bin	0.0001127808	9127
bin	0.0001136352	9267
bin	0.0001144896	9462
bin	0.000115344	9294
bin	0.0001161984	9287
bin	0.0001170528	9183
bin	0.0001179072	9456
bin	0.0001187616	9235
bin	0.000119616	9049
bin	0.0001204704	9058
bin	0.0001213248	9400
bin	0.0001221792	9201
bin	0.0001230336	9313
bin	0.000123888	9372
bin	0.0001247424	9160
bin	0.0001255968	9002
bin	0.0001264512	9110
bin	0.0001273056	9361
bin	0.00012816	9205
bin	0.0001290144	9239
bin	0.0001298688	9126
bin	0.0001307232	9188
bin	0.0001315776	9140
bin	0.000132432	9301
bin	0.0001332864	9056
bin	0.0001341408	9080
bin	0.0001349952	9251
bin	0.0001358496	9074
bin	0.000136704	9184
bin	0.0001375584	9013
bin	0.0001384128	9024
bin	0.0001392672	9168
bin	0.0001401216	9270
bin	0.000140976	9281
bin	0.0001418304	9174
bin	0.0001426848	9212
bin	0.0001435392	9263
bin	0.0001443936	9042
bin	0.000145248	9077
bin	0.0001461024	9251
bin	0.0001469568	9270
bin	0.0001478112	9311
bin	0.0001486656	9196
bin	0.00014952	9159
bin	0.0001503744	9165
bin	0.0001512288	9217
bin	0.0001520832	9202
bin	0.0001529376	9279
bin	0.000153792	9309
bin	0.0001546464	9214
bin	0.0001555008	9329
bin	0.0001563552	9432
bin	0.0001572096	9434
bin	0.000158064	9458
bin	0.0001589184	9275
bin	0.0001597728	9304
bin	0.0001606272	9402
bin	0.0001614816	9333
bin	0.000162336	9407
bin	0.0001631904	9500
bin	0.0001640448	9597
bin	0.0001648992	9777
bin	0.0001657536	9648
bin	0.000166608	9625
bin	0.0001674624	9941
bin	0.0001683168	9674
bin	0.0001691712	9874
bin	0.0001700256	9996
bin	0.00017088	9809
bin	0.0001717344	9922
bin	0.0001725888	9979
bin	0.0001734432	9990
bin	0.0001742976	9763
bin	0.000175152	9838
bin	0.0001760064	9783
bin	0.0001768608	9958
bin	0.0001777152	9809
bin	0.0001785696	9771
bin	0.000179424	9603
bin	0.0001802784	9739
bin	0.0001811328	10014
bin	0.0001819872	10043
bin	0.0001828416	10084
bin	0.000183696	10190
bin	0.0001845504	10095
bin	0.0001854048	10042
bin	0.0001862592	10201
bin	0.0001871136	9955
bin	0.000187968	10167
bin	0.0001888224	10190
bin	0.0001896768	10142
bin	0.0001905312	10158
bin	0.0001913856	10050
bin	0.00019224	10071
bin	0.0001930944	10268
bin	0.0001939488	10237
bin	0.0001948032	10155
bin	0.0001956576	10197
bin	0.000196512	10151
bin	0.0001973664	10086
bin	0.0001982208	10108
bin	0.0001990752	10180
bin	0.0001999296	10120
bin	0.000200784	10118
bin	0.0002016384	10033
bin	0.0002024928	10275
bin	0.0002033472	10158
bin	0.0002042016	10253
bin	0.000205056	10189
bin	0.0002059104	10422
bin	0.0002067648	10438
bin	0.0002076192	10378
bin	0.0002084736	10528
bin	0.000209328	10408
bin	0.0002101824	10322
bin	0.0002110368	10371
bin	0.0002118912	10496
bin	0.0002127456	10603
bin	0.0002136	10666
bin	0.0002144544	10494
bin	0.0002153088	10666
bin	0.0002161632	10586
bin	0.0002170176	10629
bin	0.000217872	10729
bin	0.0002187264	10776
bin	0.0002195808	10602
bin	0.0002204352	10634
bin	0.0002212896	10749
bin	0.000222144	10702
bin	0.0002229984	10662
bin	0.0002238528	10668
bin	0.0002247072	10801
bin	0.0002255616	10813
bin	0.000226416	10934
bin	0.0002272704	10714
bin	0.0002281248	10947
bin	0.0002289792	10827
bin	0.0002298336	10790
bin	0.000230688	10812
bin	0.0002315424	11016
bin	0.0002323968	10741
bin	0.0002332512	10679
bin	0.0002341056	10986
bin	0.00023496	10901
bin	0.0002358144	11030
bin	0.0002366688	10813
bin	0.0002375232	10630
bin	0.0002383776	10896
bin	0.000239232	10924
bin	0.0002400864	10846
bin	0.0002409408	10851
bin	0.0002417952	11024
bin	0.0002426496	10983
bin	0.000243504	10989
bin	0.0002443584	10831
bin	0.0002452128	10788
bin	0.0002460672	10755
bin	0.0002469216	10770
bin	0.000247776	10780
bin	0.0002486304	10874
bin	0.0002494848	10886
bin	0.0002503392	11074
bin	0.0002511936	10725
bin	0.000252048	10904
bin	0.0002529024	10779
bin	0.0002537568	10854
bin	0.0002546112	10884
bin	0.0002554656	11008
bin	0.00025632	10964
bin	0.0002571744	10851
bin	0.0002580288	10852
bin	0.0002588832	10811
bin	0.0002597376	10761
bin	0.000260592	10714
bin	0.0002614464	10708
bin	0.0002623008	10829
bin	0.0002631552	10717
bin	0.0002640096	10648
bin	0.000264864	10661
bin	0.0002657184	10684
bin	0.0002665728	10710
bin	0.0002674272	10728
bin	0.0002682816	10745
bin	0.000269136	10773
bin	0.0002699904	10588
bin	0.0002708448	10669
bin	0.0002716992	10586
bin	0.0002725536	10681
bin	0.000273408	10553
bin	0.0002742624	10457
bin	0.0002751168	10499
bin	0.0002759712	10461
bin	0.0002768256	10656
bin	0.00027768	10610
bin	0.0002785344	10639
bin	0.0002793888	10464
bin	0.0002802432	10526
bin	0.0002810976	10367
bin	0.000281952	10397
bin	0.0002828064	10657
bin	0.0002836608	10284
bin	0.0002845152	10339
bin	0.0002853696	10407
bin	0.000286224	10411
bin	0.0002870784	10470
bin	0.0002879328	10467
bin	0.0002887872	10369
bin	0.0002896416	10389
bin	0.000290496	10353
bin	0.0002913504	10532
bin	0.0002922048	10568
bin	0.0002930592	10506
bin	0.0002939136	10505
bin	0.000294768	10506
bin	0.0002956224	10343
bin	0.0002964768	10308
bin	0.0002973312	10068
bin	0.0002981856	10257
bin	0.00029904	10038
bin	0.0002998944	10083
bin	0.0003007488	10192
bin	0.0003016032	10155
bin	0.0003024576	10166
bin	0.000303312	10362
bin	0.0003041664	10395
bin	0.0003050208	10409
bin	0.0003058752	10383
bin	0.0003067296	10362
bin	0.000307584	10457
bin	0.0003084384	10269
bin	0.0003092928	10246
bin	0.0003101472	10356
bin	0.0003110016	10324
bin	0.000311856	10300
bin	0.0003127104	10171
bin	0.0003135648	10254
bin	0.0003144192	10183
bin	0.0003152736	10412
bin	0.000316128	10423
bin	0.0003169824	10360
bin	0.0003178368	10419
bin	0.0003186912	10185
bin	0.0003195456	10228
bin	0.0003204	10270
bin	0.0003212544	10240
bin	0.0003221088	10130
bin	0.0003229632	10299
bin	0.0003238176	10189
bin	0.000324672	10109
bin	0.0003255264	10081
bin	0.0003263808	9994
bin	0.0003272352	10159
bin	0.0003280896	10146
bin	0.000328944	10105
bin	0.0003297984	10167
bin	0.0003306528	10067
bin	0.0003315072	10197
bin	0.0003323616	10140
bin	0.000333216	10075
bin	0.0003340704	10029
bin	0.0003349248	9894
bin	0.0003357792	10027
bin	0.0003366336	10130
bin	0.000337488	10028
bin	0.0003383424	10039
bin	0.0003391968	9970
bin	0.0003400512	10207
bin	0.0003409056	10005
bin	0.00034176	9983
bin	0.0003426144	9910
bin	0.0003434688	9893
bin	0.0003443232	9894
bin	0.0003451776	9804
bin	0.000346032	10100
bin	0.0003468864	9937
bin	0.0003477408	9945
bin	0.0003485952	9776
bin	0.0003494496	9969
bin	0.000350304	9812
bin	0.0003511584	9855
bin	0.0003520128	9855
bin	0.0003528672	9765
bin	0.0003537216	9810
bin	0.000354576	9722
bin	0.0003554304	9668
bin	0.0003562848	9770
bin	0.0003571392	9786
bin	0.0003579936	9881
bin	0.000358848	9899
bin	0.0003597024	9972
bin	0.0003605568	9744
bin	0.0003614112	9491
bin	0.0003622656	9718
bin	0.00036312	9676
bin	0.0003639744	9661
bin	0.0003648288	9812
bin	0.0003656832	9654
bin	0.0003665376	9663
bin	0.000367392	9630
bin	0.0003682464	9916
bin	0.0003691008	9865
bin	0.0003699552	9848
bin	0.0003708096	9727
bin	0.000371664	9662
bin	0.0003725184	9809
bin	0.0003733728	10001
bin	0.0003742272	9951
bin	0.0003750816	9967
bin	0.000375936	9871
bin	0.0003767904	10029
bin	0.0003776448	10018
bin	0.0003784992	9992
bin	0.0003793536	9912
bin	0.000380208	9898
bin	0.0003810624	9840
bin	0.0003819168	9778
bin	0.0003827712	10069
bin	0.0003836256	9952
bin	0.00038448	9944
bin	0.0003853344	9870
bin	0.0003861888	9741
bin	0.0003870432	9804
bin	0.0003878976	9777
bin	0.000388752	9912
bin	0.0003896064	9784
bin	0.0003904608	9718
bin	0.0003913152	9782
bin	0.0003921696	9597
bin	0.000393024	9809
bin	0.0003938784	9820
bin	0.0003947328	9971
bin	0.0003955872	9876
bin	0.0003964416	10056
bin	0.000397296	10002
bin	0.0003981504	9853
bin	0.0003990048	10046
bin	0.0003998592	9921
bin	0.0004007136	9839
bin	0.000401568	9844
bin	0.0004024224	9865
bin	0.0004032768	9775
bin	0.0004041312	9840
bin	0.0004049856	9670
bin	0.00040584	9585
bin	0.0004066944	9861
bin	0.0004075488	10033
bin	0.0004084032	9774
bin	0.0004092576	9781
bin	0.000410112	9569
bin	0.0004109664	9733
bin	0.0004118208	9682
bin	0.0004126752	9848
bin	0.0004135296	9960
bin	0.000414384	9918
bin	0.0004152384	9804
bin	0.0004160928	9763
bin	0.0004169472	9758
bin	0.0004178016	9739
bin	0.000418656	9677
bin	0.0004195104	9688
bin	0.0004203648	9616
bin	0.0004212192	9716
bin	0.0004220736	9643
bin	0.000422928	9501
bin	0.0004237824	9473
bin	0.0004246368	9561
bin	0.0004254912	9601
bin	0.0004263456	9274
bin	0.0004272	1163064
