version 2
run Butterfly-123-20120709-13:27:52-24165
attr alg 3
attr buf 8
attr configname Butterfly
attr datetime 20120709-13:27:52
attr delta 1.4
attr experiment Butterfly
attr ext false
attr inifile altro.ini
attr iterationvars "$buf=8, $ext=false, $ofedge=1, $delta=1.4, $alg=3"
attr iterationvars2 "$buf=8, $ext=false, $ofedge=1, $delta=1.4, $alg=3, $repetition=0"
attr measurement "$buf=8, $ext=false, $ofedge=1, $delta=1.4, $alg=3"
attr network Torus3d_bub
attr ofedge 1
attr processid 24165
attr repetition 0
attr replication #0
attr resultdir altro-results
attr runnumber 123
attr seedset 123

scalar . 	alg 	3
scalar . 	buf 	8
scalar . 	delta 	1.4
scalar . 	ofedge 	1
scalar Torus3d_bub.timer 	#endTime 	0.000837168332048
scalar Torus3d_bub.timer 	#totalHops 	35250165
scalar Torus3d_bub.timer 	#totalPacks 	6291456
scalar Torus3d_bub.timer 	#totalDerouted 	4202586
scalar Torus3d_bub.timer 	#totalOutFlanked 	3957910
scalar Torus3d_bub.timer 	#totalCQRed 	244676
scalar Torus3d_bub.timer 	#LB 	0.000786432
scalar Torus3d_bub.timer 	#ratio 	0.93939530425872
statistic Torus3d_bub.timer 	"Hop Times"
field count 6291456
field mean 2.3623711940856e-05
field stddev 3.1421932988001e-05
field sum 148.62754423257
field sqrsum 0.00972292608733
field min 4.12404751e-07
field max 0.000443988571377
bin	-INF	0
bin	0	0
bin	7.12e-08	0
bin	1.424e-07	0
bin	2.136e-07	0
bin	2.848e-07	0
bin	3.56e-07	5
bin	4.272e-07	310
bin	4.984e-07	7372
bin	5.696e-07	4095
bin	6.408e-07	5313
bin	7.12e-07	5904
bin	7.832e-07	3741
bin	8.544e-07	7636
bin	9.256e-07	4195
bin	9.968e-07	11087
bin	1.068e-06	7529
bin	1.1392e-06	10625
bin	1.2104e-06	10182
bin	1.2816e-06	14621
bin	1.3528e-06	14234
bin	1.424e-06	12723
bin	1.4952e-06	19019
bin	1.5664e-06	15879
bin	1.6376e-06	15700
bin	1.7088e-06	18700
bin	1.78e-06	21452
bin	1.8512e-06	21096
bin	1.9224e-06	18455
bin	1.9936e-06	18204
bin	2.0648e-06	27495
bin	2.136e-06	22391
bin	2.2072e-06	23733
bin	2.2784e-06	28258
bin	2.3496e-06	24329
bin	2.4208e-06	26066
bin	2.492e-06	27845
bin	2.5632e-06	24786
bin	2.6344e-06	29737
bin	2.7056e-06	21303
bin	2.7768e-06	28091
bin	2.848e-06	23056
bin	2.9192e-06	23645
bin	2.9904e-06	22266
bin	3.0616e-06	28395
bin	3.1328e-06	23131
bin	3.204e-06	24146
bin	3.2752e-06	21011
bin	3.3464e-06	21878
bin	3.4176e-06	23847
bin	3.4888e-06	19855
bin	3.56e-06	17927
bin	3.6312e-06	23205
bin	3.7024e-06	21132
bin	3.7736e-06	17823
bin	3.8448e-06	24802
bin	3.916e-06	17158
bin	3.9872e-06	18778
bin	4.0584e-06	19419
bin	4.1296e-06	22646
bin	4.2008e-06	23061
bin	4.272e-06	19049
bin	4.3432e-06	17030
bin	4.4144e-06	20533
bin	4.4856e-06	16460
bin	4.5568e-06	17217
bin	4.628e-06	20177
bin	4.6992e-06	16683
bin	4.7704e-06	16465
bin	4.8416e-06	16870
bin	4.9128e-06	20338
bin	4.984e-06	17415
bin	5.0552e-06	16444
bin	5.1264e-06	17514
bin	5.1976e-06	21200
bin	5.2688e-06	17262
bin	5.34e-06	19704
bin	5.4112e-06	21105
bin	5.4824e-06	17086
bin	5.5536e-06	17950
bin	5.6248e-06	18164
bin	5.696e-06	20150
bin	5.7672e-06	16851
bin	5.8384e-06	16851
bin	5.9096e-06	15742
bin	5.9808e-06	20776
bin	6.052e-06	15482
bin	6.1232e-06	15916
bin	6.1944e-06	20220
bin	6.2656e-06	15335
bin	6.3368e-06	15362
bin	6.408e-06	15669
bin	6.4792e-06	19346
bin	6.5504e-06	15304
bin	6.6216e-06	15271
bin	6.6928e-06	15389
bin	6.764e-06	18963
bin	6.8352e-06	15173
bin	6.9064e-06	15660
bin	6.9776e-06	18689
bin	7.0488e-06	14953
bin	7.12e-06	14966
bin	7.1912e-06	15053
bin	7.2624e-06	18941
bin	7.3336e-06	14795
bin	7.4048e-06	14606
bin	7.476e-06	14865
bin	7.5472e-06	18937
bin	7.6184e-06	14707
bin	7.6896e-06	15048
bin	7.7608e-06	18078
bin	7.832e-06	14451
bin	7.9032e-06	14350
bin	7.9744e-06	14374
bin	8.0456e-06	14082
bin	8.1168e-06	13953
bin	8.188e-06	13962
bin	8.2592e-06	14086
bin	8.3304e-06	17913
bin	8.4016e-06	13908
bin	8.4728e-06	14000
bin	8.544e-06	17510
bin	8.6152e-06	15711
bin	8.6864e-06	13781
bin	8.7576e-06	15725
bin	8.8288e-06	15408
bin	8.9e-06	15618
bin	8.9712e-06	13549
bin	9.0424e-06	15727
bin	9.1136e-06	17447
bin	9.1848e-06	15640
bin	9.256e-06	13918
bin	9.3272e-06	15367
bin	9.3984e-06	15729
bin	9.4696e-06	13520
bin	9.5408e-06	15895
bin	9.612e-06	15553
bin	9.6832e-06	13417
bin	9.7544e-06	13365
bin	9.8256e-06	13507
bin	9.8968e-06	17161
bin	9.968e-06	13191
bin	1.00392e-05	13625
bin	1.01104e-05	14910
bin	1.01816e-05	13208
bin	1.02528e-05	13088
bin	1.0324e-05	12974
bin	1.03952e-05	13074
bin	1.04664e-05	13054
bin	1.05376e-05	13021
bin	1.06088e-05	13137
bin	1.068e-05	15242
bin	1.07512e-05	13104
bin	1.08224e-05	13327
bin	1.08936e-05	16930
bin	1.09648e-05	13221
bin	1.1036e-05	13086
bin	1.11072e-05	13104
bin	1.11784e-05	15273
bin	1.12496e-05	13011
bin	1.13208e-05	13231
bin	1.1392e-05	13411
bin	1.14632e-05	17150
bin	1.15344e-05	12904
bin	1.16056e-05	13178
bin	1.16768e-05	14855
bin	1.1748e-05	13117
bin	1.18192e-05	13028
bin	1.18904e-05	13049
bin	1.19616e-05	16979
bin	1.20328e-05	12837
bin	1.2104e-05	13108
bin	1.21752e-05	13258
bin	1.22464e-05	14880
bin	1.23176e-05	12766
bin	1.23888e-05	13136
bin	1.246e-05	16648
bin	1.25312e-05	12486
bin	1.26024e-05	12602
bin	1.26736e-05	12419
bin	1.27448e-05	14704
bin	1.2816e-05	12290
bin	1.28872e-05	12531
bin	1.29584e-05	12500
bin	1.30296e-05	12396
bin	1.31008e-05	12459
bin	1.3172e-05	12574
bin	1.32432e-05	12341
bin	1.33144e-05	12203
bin	1.33856e-05	12270
bin	1.34568e-05	12160
bin	1.3528e-05	12067
bin	1.35992e-05	12103
bin	1.36704e-05	12016
bin	1.37416e-05	11902
bin	1.38128e-05	12017
bin	1.3884e-05	12085
bin	1.39552e-05	12145
bin	1.40264e-05	11877
bin	1.40976e-05	11817
bin	1.41688e-05	12143
bin	1.424e-05	11813
bin	1.43112e-05	12068
bin	1.43824e-05	12044
bin	1.44536e-05	12050
bin	1.45248e-05	11824
bin	1.4596e-05	11654
bin	1.46672e-05	11719
bin	1.47384e-05	11953
bin	1.48096e-05	11648
bin	1.48808e-05	11550
bin	1.4952e-05	11808
bin	1.50232e-05	11686
bin	1.50944e-05	11417
bin	1.51656e-05	11738
bin	1.52368e-05	11734
bin	1.5308e-05	11423
bin	1.53792e-05	11552
bin	1.54504e-05	11531
bin	1.55216e-05	11667
bin	1.55928e-05	11602
bin	1.5664e-05	11440
bin	1.57352e-05	11654
bin	1.58064e-05	11354
bin	1.58776e-05	11330
bin	1.59488e-05	11492
bin	1.602e-05	11336
bin	1.60912e-05	11066
bin	1.61624e-05	11196
bin	1.62336e-05	10979
bin	1.63048e-05	11183
bin	1.6376e-05	10899
bin	1.64472e-05	10987
bin	1.65184e-05	10900
bin	1.65896e-05	10723
bin	1.66608e-05	10899
bin	1.6732e-05	10940
bin	1.68032e-05	10707
bin	1.68744e-05	10633
bin	1.69456e-05	10354
bin	1.70168e-05	10423
bin	1.7088e-05	10581
bin	1.71592e-05	10385
bin	1.72304e-05	10529
bin	1.73016e-05	10480
bin	1.73728e-05	10343
bin	1.7444e-05	10359
bin	1.75152e-05	10400
bin	1.75864e-05	10406
bin	1.76576e-05	10224
bin	1.77288e-05	10332
bin	1.78e-05	10497
bin	1.78712e-05	10272
bin	1.79424e-05	10022
bin	1.80136e-05	10246
bin	1.80848e-05	10207
bin	1.8156e-05	10113
bin	1.82272e-05	9961
bin	1.82984e-05	9954
bin	1.83696e-05	9999
bin	1.84408e-05	9877
bin	1.8512e-05	10026
bin	1.85832e-05	9948
bin	1.86544e-05	9630
bin	1.87256e-05	9660
bin	1.87968e-05	9845
bin	1.8868e-05	9698
bin	1.89392e-05	9610
bin	1.90104e-05	9437
bin	1.90816e-05	9545
bin	1.91528e-05	9790
bin	1.9224e-05	9395
bin	1.92952e-05	9594
bin	1.93664e-05	9398
bin	1.94376e-05	9299
bin	1.95088e-05	9223
bin	1.958e-05	9335
bin	1.96512e-05	9258
bin	1.97224e-05	9000
bin	1.97936e-05	9246
bin	1.98648e-05	9027
bin	1.9936e-05	9130
bin	2.00072e-05	8789
bin	2.00784e-05	9154
bin	2.01496e-05	8968
bin	2.02208e-05	8850
bin	2.0292e-05	8844
bin	2.03632e-05	8785
bin	2.04344e-05	8894
bin	2.05056e-05	8548
bin	2.05768e-05	8601
bin	2.0648e-05	8679
bin	2.07192e-05	8679
bin	2.07904e-05	8346
bin	2.08616e-05	8558
bin	2.09328e-05	8567
bin	2.1004e-05	8627
bin	2.10752e-05	8570
bin	2.11464e-05	8570
bin	2.12176e-05	8738
bin	2.12888e-05	8464
bin	2.136e-05	8404
bin	2.14312e-05	8593
bin	2.15024e-05	8500
bin	2.15736e-05	8195
bin	2.16448e-05	8283
bin	2.1716e-05	8205
bin	2.17872e-05	8141
bin	2.18584e-05	8215
bin	2.19296e-05	8174
bin	2.20008e-05	8276
bin	2.2072e-05	8017
bin	2.21432e-05	7890
bin	2.22144e-05	8134
bin	2.22856e-05	7998
bin	2.23568e-05	7847
bin	2.2428e-05	7894
bin	2.24992e-05	7736
bin	2.25704e-05	7691
bin	2.26416e-05	7804
bin	2.27128e-05	7808
bin	2.2784e-05	7784
bin	2.28552e-05	7419
bin	2.29264e-05	7615
bin	2.29976e-05	7679
bin	2.30688e-05	7573
bin	2.314e-05	7383
bin	2.32112e-05	7431
bin	2.32824e-05	7306
bin	2.33536e-05	7237
bin	2.34248e-05	7107
bin	2.3496e-05	7344
bin	2.35672e-05	7313
bin	2.36384e-05	7029
bin	2.37096e-05	7012
bin	2.37808e-05	7220
bin	2.3852e-05	7070
bin	2.39232e-05	6826
bin	2.39944e-05	7136
bin	2.40656e-05	7210
bin	2.41368e-05	6965
bin	2.4208e-05	6942
bin	2.42792e-05	7154
bin	2.43504e-05	7008
bin	2.44216e-05	6904
bin	2.44928e-05	6786
bin	2.4564e-05	7020
bin	2.46352e-05	6835
bin	2.47064e-05	6693
bin	2.47776e-05	6855
bin	2.48488e-05	6898
bin	2.492e-05	6768
bin	2.49912e-05	6527
bin	2.50624e-05	6695
bin	2.51336e-05	6591
bin	2.52048e-05	6568
bin	2.5276e-05	6446
bin	2.53472e-05	6430
bin	2.54184e-05	6581
bin	2.54896e-05	6248
bin	2.55608e-05	6286
bin	2.5632e-05	6509
bin	2.57032e-05	6133
bin	2.57744e-05	6332
bin	2.58456e-05	6273
bin	2.59168e-05	6229
bin	2.5988e-05	6284
bin	2.60592e-05	6259
bin	2.61304e-05	6301
bin	2.62016e-05	6360
bin	2.62728e-05	6138
bin	2.6344e-05	5982
bin	2.64152e-05	6132
bin	2.64864e-05	6011
bin	2.65576e-05	6042
bin	2.66288e-05	6167
bin	2.67e-05	6010
bin	2.67712e-05	6079
bin	2.68424e-05	5862
bin	2.69136e-05	6048
bin	2.69848e-05	5938
bin	2.7056e-05	5783
bin	2.71272e-05	5902
bin	2.71984e-05	5803
bin	2.72696e-05	5877
bin	2.73408e-05	5805
bin	2.7412e-05	5847
bin	2.74832e-05	5703
bin	2.75544e-05	5589
bin	2.76256e-05	5576
bin	2.76968e-05	5650
bin	2.7768e-05	5649
bin	2.78392e-05	5456
bin	2.79104e-05	5581
bin	2.79816e-05	5438
bin	2.80528e-05	5434
bin	2.8124e-05	5318
bin	2.81952e-05	5434
bin	2.82664e-05	5280
bin	2.83376e-05	5123
bin	2.84088e-05	5014
bin	2.848e-05	5206
bin	2.85512e-05	5120
bin	2.86224e-05	5102
bin	2.86936e-05	5164
bin	2.87648e-05	5121
bin	2.8836e-05	5165
bin	2.89072e-05	5107
bin	2.89784e-05	5129
bin	2.90496e-05	4908
bin	2.91208e-05	4907
bin	2.9192e-05	4938
bin	2.92632e-05	4885
bin	2.93344e-05	4902
bin	2.94056e-05	4912
bin	2.94768e-05	4826
bin	2.9548e-05	4818
bin	2.96192e-05	4774
bin	2.96904e-05	4733
bin	2.97616e-05	4768
bin	2.98328e-05	4819
bin	2.9904e-05	4730
bin	2.99752e-05	4730
bin	3.00464e-05	4863
bin	3.01176e-05	4719
bin	3.01888e-05	4621
bin	3.026e-05	4654
bin	3.03312e-05	4584
bin	3.04024e-05	4499
bin	3.04736e-05	4590
bin	3.05448e-05	4724
bin	3.0616e-05	4533
bin	3.06872e-05	4471
bin	3.07584e-05	4473
bin	3.08296e-05	4608
bin	3.09008e-05	4547
bin	3.0972e-05	4354
bin	3.10432e-05	4341
bin	3.11144e-05	4379
bin	3.11856e-05	4311
bin	3.12568e-05	4289
bin	3.1328e-05	4285
bin	3.13992e-05	4276
bin	3.14704e-05	4248
bin	3.15416e-05	4218
bin	3.16128e-05	4328
bin	3.1684e-05	4240
bin	3.17552e-05	4174
bin	3.18264e-05	4197
bin	3.18976e-05	4148
bin	3.19688e-05	4020
bin	3.204e-05	4048
bin	3.21112e-05	4063
bin	3.21824e-05	4047
bin	3.22536e-05	4047
bin	3.23248e-05	4048
bin	3.2396e-05	4058
bin	3.24672e-05	4012
bin	3.25384e-05	3920
bin	3.26096e-05	4066
bin	3.26808e-05	3873
bin	3.2752e-05	3787
bin	3.28232e-05	3828
bin	3.28944e-05	3850
bin	3.29656e-05	3772
bin	3.30368e-05	3712
bin	3.3108e-05	3768
bin	3.31792e-05	3843
bin	3.32504e-05	3679
bin	3.33216e-05	3748
bin	3.33928e-05	3732
bin	3.3464e-05	3682
bin	3.35352e-05	3708
bin	3.36064e-05	3651
bin	3.36776e-05	3863
bin	3.37488e-05	3698
bin	3.382e-05	3648
bin	3.38912e-05	3570
bin	3.39624e-05	3670
bin	3.40336e-05	3639
bin	3.41048e-05	3515
bin	3.4176e-05	3577
bin	3.42472e-05	3424
bin	3.43184e-05	3611
bin	3.43896e-05	3577
bin	3.44608e-05	3615
bin	3.4532e-05	3553
bin	3.46032e-05	3538
bin	3.46744e-05	3581
bin	3.47456e-05	3489
bin	3.48168e-05	3503
bin	3.4888e-05	3440
bin	3.49592e-05	3421
bin	3.50304e-05	3296
bin	3.51016e-05	3452
bin	3.51728e-05	3348
bin	3.5244e-05	3387
bin	3.53152e-05	3272
bin	3.53864e-05	3374
bin	3.54576e-05	3314
bin	3.55288e-05	3273
bin	3.56e-05	1081965
statistic Torus3d_bub.timer 	"Life Times"
field count 6291456
field mean 9.5301824178219e-05
field stddev 7.1816762667744e-05
field sum 599.587233537
field sqrsum 0.089590863633488
field min 5.2e-07
field max 0.000607972427734
bin	-INF	0
bin	0	9979
bin	8.544e-07	28394
bin	1.7088e-06	35364
bin	2.5632e-06	36051
bin	3.4176e-06	34101
bin	4.272e-06	38209
bin	5.1264e-06	40887
bin	5.9808e-06	42346
bin	6.8352e-06	36943
bin	7.6896e-06	45056
bin	8.544e-06	51070
bin	9.3984e-06	56272
bin	1.02528e-05	51461
bin	1.11072e-05	62970
bin	1.19616e-05	62802
bin	1.2816e-05	43169
bin	1.36704e-05	47462
bin	1.45248e-05	46130
bin	1.53792e-05	48713
bin	1.62336e-05	47166
bin	1.7088e-05	48636
bin	1.79424e-05	46084
bin	1.87968e-05	42956
bin	1.96512e-05	40617
bin	2.05056e-05	41314
bin	2.136e-05	42613
bin	2.22144e-05	40301
bin	2.30688e-05	36937
bin	2.39232e-05	35405
bin	2.47776e-05	34301
bin	2.5632e-05	32386
bin	2.64864e-05	31412
bin	2.73408e-05	30277
bin	2.81952e-05	29914
bin	2.90496e-05	29087
bin	2.9904e-05	29388
bin	3.07584e-05	29491
bin	3.16128e-05	29357
bin	3.24672e-05	29182
bin	3.33216e-05	29518
bin	3.4176e-05	29776
bin	3.50304e-05	29863
bin	3.58848e-05	30009
bin	3.67392e-05	30287
bin	3.75936e-05	30698
bin	3.8448e-05	30425
bin	3.93024e-05	29864
bin	4.01568e-05	29913
bin	4.10112e-05	29701
bin	4.18656e-05	30194
bin	4.272e-05	30101
bin	4.35744e-05	30221
bin	4.44288e-05	29818
bin	4.52832e-05	29524
bin	4.61376e-05	28997
bin	4.6992e-05	29107
bin	4.78464e-05	28875
bin	4.87008e-05	28480
bin	4.95552e-05	28303
bin	5.04096e-05	28113
bin	5.1264e-05	28231
bin	5.21184e-05	28319
bin	5.29728e-05	28301
bin	5.38272e-05	28182
bin	5.46816e-05	27738
bin	5.5536e-05	27690
bin	5.63904e-05	27525
bin	5.72448e-05	27319
bin	5.80992e-05	26966
bin	5.89536e-05	26937
bin	5.9808e-05	26937
bin	6.06624e-05	27082
bin	6.15168e-05	26625
bin	6.23712e-05	26666
bin	6.32256e-05	26803
bin	6.408e-05	26476
bin	6.49344e-05	26355
bin	6.57888e-05	26186
bin	6.66432e-05	26270
bin	6.74976e-05	26220
bin	6.8352e-05	26350
bin	6.92064e-05	26019
bin	7.00608e-05	26063
bin	7.09152e-05	26156
bin	7.17696e-05	26072
bin	7.2624e-05	25770
bin	7.34784e-05	25648
bin	7.43328e-05	25819
bin	7.51872e-05	25860
bin	7.60416e-05	25504
bin	7.6896e-05	25496
bin	7.77504e-05	25467
bin	7.86048e-05	25370
bin	7.94592e-05	25290
bin	8.03136e-05	25190
bin	8.1168e-05	24616
bin	8.20224e-05	24720
bin	8.28768e-05	25015
bin	8.37312e-05	24940
bin	8.45856e-05	24982
bin	8.544e-05	24746
bin	8.62944e-05	25070
bin	8.71488e-05	24872
bin	8.80032e-05	25125
bin	8.88576e-05	24388
bin	8.9712e-05	24601
bin	9.05664e-05	24673
bin	9.14208e-05	24758
bin	9.22752e-05	24710
bin	9.31296e-05	24607
bin	9.3984e-05	24178
bin	9.48384e-05	24188
bin	9.56928e-05	23888
bin	9.65472e-05	23781
bin	9.74016e-05	23581
bin	9.8256e-05	23321
bin	9.91104e-05	23298
bin	9.99648e-05	23013
bin	0.0001008192	23066
bin	0.0001016736	23105
bin	0.000102528	23358
bin	0.0001033824	23162
bin	0.0001042368	23390
bin	0.0001050912	23194
bin	0.0001059456	23241
bin	0.0001068	23524
bin	0.0001076544	22917
bin	0.0001085088	22890
bin	0.0001093632	22836
bin	0.0001102176	22722
bin	0.000111072	22851
bin	0.0001119264	22970
bin	0.0001127808	22493
bin	0.0001136352	22287
bin	0.0001144896	22472
bin	0.000115344	22516
bin	0.0001161984	22266
bin	0.0001170528	22243
bin	0.0001179072	22132
bin	0.0001187616	21885
bin	0.000119616	22127
bin	0.0001204704	22029
bin	0.0001213248	21987
bin	0.0001221792	21798
bin	0.0001230336	21748
bin	0.000123888	21731
bin	0.0001247424	21678
bin	0.0001255968	21577
bin	0.0001264512	21400
bin	0.0001273056	21338
bin	0.00012816	21411
bin	0.0001290144	21226
bin	0.0001298688	20840
bin	0.0001307232	20897
bin	0.0001315776	21038
bin	0.000132432	20897
bin	0.0001332864	20658
bin	0.0001341408	20634
bin	0.0001349952	20374
bin	0.0001358496	20369
bin	0.000136704	20221
bin	0.0001375584	19943
bin	0.0001384128	20131
bin	0.0001392672	20009
bin	0.0001401216	19654
bin	0.000140976	19539
bin	0.0001418304	19497
bin	0.0001426848	19151
bin	0.0001435392	19207
bin	0.0001443936	19329
bin	0.000145248	19077
bin	0.0001461024	19099
bin	0.0001469568	18856
bin	0.0001478112	18476
bin	0.0001486656	18364
bin	0.00014952	18518
bin	0.0001503744	18283
bin	0.0001512288	17860
bin	0.0001520832	18034
bin	0.0001529376	18047
bin	0.000153792	17668
bin	0.0001546464	17823
bin	0.0001555008	17808
bin	0.0001563552	17778
bin	0.0001572096	17599
bin	0.000158064	17199
bin	0.0001589184	16973
bin	0.0001597728	17030
bin	0.0001606272	16906
bin	0.0001614816	16766
bin	0.000162336	16567
bin	0.0001631904	16515
bin	0.0001640448	16249
bin	0.0001648992	16080
bin	0.0001657536	15906
bin	0.000166608	15627
bin	0.0001674624	15699
bin	0.0001683168	15574
bin	0.0001691712	14998
bin	0.0001700256	14923
bin	0.00017088	14849
bin	0.0001717344	14776
bin	0.0001725888	14838
bin	0.0001734432	14607
bin	0.0001742976	14261
bin	0.000175152	14215
bin	0.0001760064	14180
bin	0.0001768608	14051
bin	0.0001777152	13666
bin	0.0001785696	13620
bin	0.000179424	13307
bin	0.0001802784	13189
bin	0.0001811328	13014
bin	0.0001819872	12766
bin	0.0001828416	12934
bin	0.000183696	12748
bin	0.0001845504	12448
bin	0.0001854048	12229
bin	0.0001862592	12066
bin	0.0001871136	11928
bin	0.000187968	11794
bin	0.0001888224	11844
bin	0.0001896768	11742
bin	0.0001905312	11759
bin	0.0001913856	11481
bin	0.00019224	11322
bin	0.0001930944	11147
bin	0.0001939488	11148
bin	0.0001948032	10936
bin	0.0001956576	10702
bin	0.000196512	10564
bin	0.0001973664	10463
bin	0.0001982208	10339
bin	0.0001990752	10278
bin	0.0001999296	10076
bin	0.000200784	9906
bin	0.0002016384	9711
bin	0.0002024928	9579
bin	0.0002033472	9383
bin	0.0002042016	9241
bin	0.000205056	8995
bin	0.0002059104	8983
bin	0.0002067648	8843
bin	0.0002076192	8723
bin	0.0002084736	8496
bin	0.000209328	8580
bin	0.0002101824	8167
bin	0.0002110368	8210
bin	0.0002118912	8124
bin	0.0002127456	7923
bin	0.0002136	7923
bin	0.0002144544	7605
bin	0.0002153088	7640
bin	0.0002161632	7281
bin	0.0002170176	7267
bin	0.000217872	7300
bin	0.0002187264	7065
bin	0.0002195808	6776
bin	0.0002204352	6714
bin	0.0002212896	6760
bin	0.000222144	6717
bin	0.0002229984	6611
bin	0.0002238528	6497
bin	0.0002247072	6198
bin	0.0002255616	6206
bin	0.000226416	6138
bin	0.0002272704	6072
bin	0.0002281248	5845
bin	0.0002289792	5745
bin	0.0002298336	5743
bin	0.000230688	5563
bin	0.0002315424	5420
bin	0.0002323968	5234
bin	0.0002332512	5218
bin	0.0002341056	5187
bin	0.00023496	5100
bin	0.0002358144	4976
bin	0.0002366688	4967
bin	0.0002375232	4875
bin	0.0002383776	4712
bin	0.000239232	4693
bin	0.0002400864	4681
bin	0.0002409408	4559
bin	0.0002417952	4424
bin	0.0002426496	4282
bin	0.000243504	4251
bin	0.0002443584	4134
bin	0.0002452128	4025
bin	0.0002460672	3986
bin	0.0002469216	3967
bin	0.000247776	3894
bin	0.0002486304	3692
bin	0.0002494848	3681
bin	0.0002503392	3536
bin	0.0002511936	3470
bin	0.000252048	3470
bin	0.0002529024	3462
bin	0.0002537568	3350
bin	0.0002546112	3336
bin	0.0002554656	3234
bin	0.00025632	3153
bin	0.0002571744	3137
bin	0.0002580288	3083
bin	0.0002588832	2925
bin	0.0002597376	2950
bin	0.000260592	2809
bin	0.0002614464	2851
bin	0.0002623008	2864
bin	0.0002631552	2781
bin	0.0002640096	2663
bin	0.000264864	2601
bin	0.0002657184	2492
bin	0.0002665728	2459
bin	0.0002674272	2363
bin	0.0002682816	2333
bin	0.000269136	2420
bin	0.0002699904	2279
bin	0.0002708448	2228
bin	0.0002716992	2197
bin	0.0002725536	2185
bin	0.000273408	2111
bin	0.0002742624	2172
bin	0.0002751168	2120
bin	0.0002759712	2133
bin	0.0002768256	2118
bin	0.00027768	1987
bin	0.0002785344	1971
bin	0.0002793888	1912
bin	0.0002802432	1853
bin	0.0002810976	1808
bin	0.000281952	1826
bin	0.0002828064	1751
bin	0.0002836608	1669
bin	0.0002845152	1665
bin	0.0002853696	1610
bin	0.000286224	1598
bin	0.0002870784	1590
bin	0.0002879328	1559
bin	0.0002887872	1585
bin	0.0002896416	1526
bin	0.000290496	1498
bin	0.0002913504	1463
bin	0.0002922048	1428
bin	0.0002930592	1388
bin	0.0002939136	1445
bin	0.000294768	1427
bin	0.0002956224	1362
bin	0.0002964768	1306
bin	0.0002973312	1222
bin	0.0002981856	1343
bin	0.00029904	1257
bin	0.0002998944	1229
bin	0.0003007488	1199
bin	0.0003016032	1177
bin	0.0003024576	1170
bin	0.000303312	1140
bin	0.0003041664	1160
bin	0.0003050208	1110
bin	0.0003058752	1068
bin	0.0003067296	1001
bin	0.000307584	1028
bin	0.0003084384	1040
bin	0.0003092928	1050
bin	0.0003101472	1057
bin	0.0003110016	982
bin	0.000311856	961
bin	0.0003127104	939
bin	0.0003135648	897
bin	0.0003144192	964
bin	0.0003152736	890
bin	0.000316128	882
bin	0.0003169824	867
bin	0.0003178368	868
bin	0.0003186912	797
bin	0.0003195456	770
bin	0.0003204	796
bin	0.0003212544	814
bin	0.0003221088	782
bin	0.0003229632	731
bin	0.0003238176	747
bin	0.000324672	784
bin	0.0003255264	729
bin	0.0003263808	715
bin	0.0003272352	657
bin	0.0003280896	649
bin	0.000328944	643
bin	0.0003297984	625
bin	0.0003306528	640
bin	0.0003315072	598
bin	0.0003323616	603
bin	0.000333216	596
bin	0.0003340704	596
bin	0.0003349248	613
bin	0.0003357792	609
bin	0.0003366336	602
bin	0.000337488	568
bin	0.0003383424	576
bin	0.0003391968	525
bin	0.0003400512	506
bin	0.0003409056	555
bin	0.00034176	514
bin	0.0003426144	496
bin	0.0003434688	484
bin	0.0003443232	456
bin	0.0003451776	414
bin	0.000346032	447
bin	0.0003468864	420
bin	0.0003477408	415
bin	0.0003485952	389
bin	0.0003494496	398
bin	0.000350304	393
bin	0.0003511584	405
bin	0.0003520128	390
bin	0.0003528672	358
bin	0.0003537216	376
bin	0.000354576	374
bin	0.0003554304	370
bin	0.0003562848	330
bin	0.0003571392	306
bin	0.0003579936	332
bin	0.000358848	310
bin	0.0003597024	301
bin	0.0003605568	318
bin	0.0003614112	270
bin	0.0003622656	263
bin	0.00036312	272
bin	0.0003639744	241
bin	0.0003648288	241
bin	0.0003656832	251
bin	0.0003665376	234
bin	0.000367392	204
bin	0.0003682464	208
bin	0.0003691008	214
bin	0.0003699552	208
bin	0.0003708096	224
bin	0.000371664	188
bin	0.0003725184	192
bin	0.0003733728	197
bin	0.0003742272	186
bin	0.0003750816	197
bin	0.000375936	212
bin	0.0003767904	170
bin	0.0003776448	183
bin	0.0003784992	180
bin	0.0003793536	179
bin	0.000380208	158
bin	0.0003810624	154
bin	0.0003819168	168
bin	0.0003827712	166
bin	0.0003836256	124
bin	0.00038448	150
bin	0.0003853344	127
bin	0.0003861888	117
bin	0.0003870432	117
bin	0.0003878976	83
bin	0.000388752	83
bin	0.0003896064	109
bin	0.0003904608	113
bin	0.0003913152	113
bin	0.0003921696	88
bin	0.000393024	82
bin	0.0003938784	78
bin	0.0003947328	77
bin	0.0003955872	80
bin	0.0003964416	77
bin	0.000397296	68
bin	0.0003981504	76
bin	0.0003990048	93
bin	0.0003998592	75
bin	0.0004007136	78
bin	0.000401568	78
bin	0.0004024224	61
bin	0.0004032768	63
bin	0.0004041312	60
bin	0.0004049856	75
bin	0.00040584	72
bin	0.0004066944	69
bin	0.0004075488	54
bin	0.0004084032	49
bin	0.0004092576	52
bin	0.000410112	45
bin	0.0004109664	55
bin	0.0004118208	50
bin	0.0004126752	57
bin	0.0004135296	60
bin	0.000414384	55
bin	0.0004152384	53
bin	0.0004160928	51
bin	0.0004169472	47
bin	0.0004178016	39
bin	0.000418656	41
bin	0.0004195104	43
bin	0.0004203648	43
bin	0.0004212192	53
bin	0.0004220736	34
bin	0.000422928	32
bin	0.0004237824	33
bin	0.0004246368	42
bin	0.0004254912	25
bin	0.0004263456	24
bin	0.0004272	740
