version 2
run Butterfly-37-20120709-10:43:08-22776
attr alg 1
attr buf 8
attr configname Butterfly
attr datetime 20120709-10:43:08
attr delta 2
attr experiment Butterfly
attr ext true
attr inifile altro.ini
attr iterationvars "$buf=8, $ext=true, $ofedge=1, $delta=2, $alg=1"
attr iterationvars2 "$buf=8, $ext=true, $ofedge=1, $delta=2, $alg=1, $repetition=0"
attr measurement "$buf=8, $ext=true, $ofedge=1, $delta=2, $alg=1"
attr network Torus3d_bub
attr ofedge 1
attr processid 22776
attr repetition 0
attr replication #0
attr resultdir altro-results
attr runnumber 37
attr seedset 37

scalar . 	alg 	1
scalar . 	buf 	8
scalar . 	delta 	2
scalar . 	ofedge 	1
scalar Torus3d_bub.timer 	#endTime 	0.000862853665358
scalar Torus3d_bub.timer 	#totalHops 	35772695
scalar Torus3d_bub.timer 	#totalPacks 	6291456
scalar Torus3d_bub.timer 	#totalDerouted 	4151361
scalar Torus3d_bub.timer 	#totalOutFlanked 	4151361
scalar Torus3d_bub.timer 	#totalCQRed 	0
scalar Torus3d_bub.timer 	#LB 	0.000786432
scalar Torus3d_bub.timer 	#ratio 	0.9114314878337
statistic Torus3d_bub.timer 	"Hop Times"
field count 6291456
field mean 4.1258160081963e-05
field stddev 4.8957929967467e-05
field sum 259.57389879662
field sqrsum 0.025789397251599
field min 4.53333307e-07
field max 0.000536119665884
bin	-INF	0
bin	0	0
bin	7.12e-08	0
bin	1.424e-07	0
bin	2.136e-07	0
bin	2.848e-07	0
bin	3.56e-07	0
bin	4.272e-07	2061
bin	4.984e-07	52
bin	5.696e-07	2134
bin	6.408e-07	163
bin	7.12e-07	6291
bin	7.832e-07	2236
bin	8.544e-07	2304
bin	9.256e-07	7461
bin	9.968e-07	2418
bin	1.068e-06	6579
bin	1.1392e-06	2603
bin	1.2104e-06	10900
bin	1.2816e-06	2814
bin	1.3528e-06	2978
bin	1.424e-06	8691
bin	1.4952e-06	8598
bin	1.5664e-06	3776
bin	1.6376e-06	4613
bin	1.7088e-06	12025
bin	1.78e-06	4386
bin	1.8512e-06	4650
bin	1.9224e-06	5213
bin	1.9936e-06	14468
bin	2.0648e-06	7700
bin	2.136e-06	7504
bin	2.2072e-06	9172
bin	2.2784e-06	10133
bin	2.3496e-06	11672
bin	2.4208e-06	9901
bin	2.492e-06	15112
bin	2.5632e-06	6133
bin	2.6344e-06	10029
bin	2.7056e-06	13039
bin	2.7768e-06	15805
bin	2.848e-06	11836
bin	2.9192e-06	9246
bin	2.9904e-06	12563
bin	3.0616e-06	10165
bin	3.1328e-06	12944
bin	3.204e-06	8022
bin	3.2752e-06	15888
bin	3.3464e-06	5336
bin	3.4176e-06	8761
bin	3.4888e-06	11091
bin	3.56e-06	10884
bin	3.6312e-06	6659
bin	3.7024e-06	6845
bin	3.7736e-06	10643
bin	3.8448e-06	10591
bin	3.916e-06	10956
bin	3.9872e-06	4628
bin	4.0584e-06	11028
bin	4.1296e-06	4653
bin	4.2008e-06	6735
bin	4.272e-06	8769
bin	4.3432e-06	10918
bin	4.4144e-06	4672
bin	4.4856e-06	4851
bin	4.5568e-06	6658
bin	4.628e-06	8508
bin	4.6992e-06	6773
bin	4.7704e-06	4565
bin	4.8416e-06	10796
bin	4.9128e-06	4477
bin	4.984e-06	6692
bin	5.0552e-06	4651
bin	5.1264e-06	9013
bin	5.1976e-06	4705
bin	5.2688e-06	5034
bin	5.34e-06	4903
bin	5.4112e-06	8977
bin	5.4824e-06	5328
bin	5.5536e-06	5196
bin	5.6248e-06	9281
bin	5.696e-06	5223
bin	5.7672e-06	5426
bin	5.8384e-06	5472
bin	5.9096e-06	9725
bin	5.9808e-06	5650
bin	6.052e-06	5883
bin	6.1232e-06	5587
bin	6.1944e-06	9957
bin	6.2656e-06	6146
bin	6.3368e-06	5755
bin	6.408e-06	10090
bin	6.4792e-06	5915
bin	6.5504e-06	5957
bin	6.6216e-06	6275
bin	6.6928e-06	10281
bin	6.764e-06	6287
bin	6.8352e-06	6279
bin	6.9064e-06	6264
bin	6.9776e-06	10357
bin	7.0488e-06	7108
bin	7.12e-06	6560
bin	7.1912e-06	10610
bin	7.2624e-06	6425
bin	7.3336e-06	6662
bin	7.4048e-06	6740
bin	7.476e-06	10581
bin	7.5472e-06	6557
bin	7.6184e-06	6541
bin	7.6896e-06	6381
bin	7.7608e-06	10541
bin	7.832e-06	6595
bin	7.9032e-06	6559
bin	7.9744e-06	10716
bin	8.0456e-06	6634
bin	8.1168e-06	6599
bin	8.188e-06	6880
bin	8.2592e-06	6606
bin	8.3304e-06	6656
bin	8.4016e-06	6477
bin	8.4728e-06	6553
bin	8.544e-06	10816
bin	8.6152e-06	6668
bin	8.6864e-06	6671
bin	8.7576e-06	10823
bin	8.8288e-06	6661
bin	8.9e-06	6727
bin	8.9712e-06	6816
bin	9.0424e-06	8830
bin	9.1136e-06	6891
bin	9.1848e-06	7161
bin	9.256e-06	6805
bin	9.3272e-06	11168
bin	9.3984e-06	7051
bin	9.4696e-06	6971
bin	9.5408e-06	7005
bin	9.612e-06	7047
bin	9.6832e-06	7135
bin	9.7544e-06	7050
bin	9.8256e-06	8991
bin	9.8968e-06	7020
bin	9.968e-06	7297
bin	1.00392e-05	7138
bin	1.01104e-05	11342
bin	1.01816e-05	7243
bin	1.02528e-05	7451
bin	1.0324e-05	9436
bin	1.03952e-05	7375
bin	1.04664e-05	7232
bin	1.05376e-05	7671
bin	1.06088e-05	7367
bin	1.068e-05	7522
bin	1.07512e-05	7683
bin	1.08224e-05	7551
bin	1.08936e-05	9774
bin	1.09648e-05	7775
bin	1.1036e-05	7498
bin	1.11072e-05	11775
bin	1.11784e-05	7839
bin	1.12496e-05	7728
bin	1.13208e-05	7887
bin	1.1392e-05	9860
bin	1.14632e-05	7928
bin	1.15344e-05	8072
bin	1.16056e-05	8016
bin	1.16768e-05	12162
bin	1.1748e-05	8027
bin	1.18192e-05	7947
bin	1.18904e-05	10117
bin	1.19616e-05	8136
bin	1.20328e-05	8081
bin	1.2104e-05	8139
bin	1.21752e-05	12121
bin	1.22464e-05	8092
bin	1.23176e-05	8123
bin	1.23888e-05	8057
bin	1.246e-05	10220
bin	1.25312e-05	8171
bin	1.26024e-05	8349
bin	1.26736e-05	12514
bin	1.27448e-05	8378
bin	1.2816e-05	8505
bin	1.28872e-05	8436
bin	1.29584e-05	10418
bin	1.30296e-05	8527
bin	1.31008e-05	8617
bin	1.3172e-05	8530
bin	1.32432e-05	8591
bin	1.33144e-05	8818
bin	1.33856e-05	8653
bin	1.34568e-05	8984
bin	1.3528e-05	8911
bin	1.35992e-05	8782
bin	1.36704e-05	8922
bin	1.37416e-05	8868
bin	1.38128e-05	8869
bin	1.3884e-05	8851
bin	1.39552e-05	8843
bin	1.40264e-05	9049
bin	1.40976e-05	9120
bin	1.41688e-05	8754
bin	1.424e-05	9105
bin	1.43112e-05	8922
bin	1.43824e-05	8805
bin	1.44536e-05	9114
bin	1.45248e-05	9168
bin	1.4596e-05	9024
bin	1.46672e-05	9099
bin	1.47384e-05	9034
bin	1.48096e-05	9252
bin	1.48808e-05	9186
bin	1.4952e-05	9212
bin	1.50232e-05	9521
bin	1.50944e-05	9271
bin	1.51656e-05	9057
bin	1.52368e-05	9138
bin	1.5308e-05	9085
bin	1.53792e-05	9136
bin	1.54504e-05	9221
bin	1.55216e-05	9239
bin	1.55928e-05	9170
bin	1.5664e-05	9263
bin	1.57352e-05	9235
bin	1.58064e-05	9452
bin	1.58776e-05	9120
bin	1.59488e-05	9310
bin	1.602e-05	9240
bin	1.60912e-05	9338
bin	1.61624e-05	9485
bin	1.62336e-05	9225
bin	1.63048e-05	9440
bin	1.6376e-05	9100
bin	1.64472e-05	9299
bin	1.65184e-05	9247
bin	1.65896e-05	9405
bin	1.66608e-05	9364
bin	1.6732e-05	9464
bin	1.68032e-05	9268
bin	1.68744e-05	9319
bin	1.69456e-05	9434
bin	1.70168e-05	9427
bin	1.7088e-05	9290
bin	1.71592e-05	9401
bin	1.72304e-05	9485
bin	1.73016e-05	9473
bin	1.73728e-05	9560
bin	1.7444e-05	9487
bin	1.75152e-05	9345
bin	1.75864e-05	9449
bin	1.76576e-05	9550
bin	1.77288e-05	9303
bin	1.78e-05	9383
bin	1.78712e-05	9407
bin	1.79424e-05	9498
bin	1.80136e-05	9463
bin	1.80848e-05	9270
bin	1.8156e-05	9728
bin	1.82272e-05	9525
bin	1.82984e-05	9418
bin	1.83696e-05	9645
bin	1.84408e-05	9434
bin	1.8512e-05	9478
bin	1.85832e-05	9460
bin	1.86544e-05	9601
bin	1.87256e-05	9421
bin	1.87968e-05	9569
bin	1.8868e-05	9319
bin	1.89392e-05	9434
bin	1.90104e-05	9310
bin	1.90816e-05	9522
bin	1.91528e-05	9562
bin	1.9224e-05	9419
bin	1.92952e-05	9423
bin	1.93664e-05	9409
bin	1.94376e-05	9380
bin	1.95088e-05	9373
bin	1.958e-05	9571
bin	1.96512e-05	9381
bin	1.97224e-05	9576
bin	1.97936e-05	9360
bin	1.98648e-05	9190
bin	1.9936e-05	9199
bin	2.00072e-05	9274
bin	2.00784e-05	9288
bin	2.01496e-05	9370
bin	2.02208e-05	9521
bin	2.0292e-05	9176
bin	2.03632e-05	9278
bin	2.04344e-05	9337
bin	2.05056e-05	9406
bin	2.05768e-05	9330
bin	2.0648e-05	9194
bin	2.07192e-05	9374
bin	2.07904e-05	9419
bin	2.08616e-05	9353
bin	2.09328e-05	9262
bin	2.1004e-05	9014
bin	2.10752e-05	9124
bin	2.11464e-05	9208
bin	2.12176e-05	9158
bin	2.12888e-05	9457
bin	2.136e-05	9480
bin	2.14312e-05	9272
bin	2.15024e-05	9376
bin	2.15736e-05	9156
bin	2.16448e-05	9383
bin	2.1716e-05	9199
bin	2.17872e-05	9500
bin	2.18584e-05	9303
bin	2.19296e-05	9513
bin	2.20008e-05	9292
bin	2.2072e-05	9254
bin	2.21432e-05	9192
bin	2.22144e-05	9069
bin	2.22856e-05	9094
bin	2.23568e-05	9058
bin	2.2428e-05	9138
bin	2.24992e-05	9053
bin	2.25704e-05	9387
bin	2.26416e-05	9240
bin	2.27128e-05	9175
bin	2.2784e-05	9064
bin	2.28552e-05	9224
bin	2.29264e-05	9216
bin	2.29976e-05	9263
bin	2.30688e-05	9317
bin	2.314e-05	9175
bin	2.32112e-05	8938
bin	2.32824e-05	8992
bin	2.33536e-05	9132
bin	2.34248e-05	9011
bin	2.3496e-05	8990
bin	2.35672e-05	8786
bin	2.36384e-05	9044
bin	2.37096e-05	8876
bin	2.37808e-05	8771
bin	2.3852e-05	8864
bin	2.39232e-05	8830
bin	2.39944e-05	8909
bin	2.40656e-05	8838
bin	2.41368e-05	8877
bin	2.4208e-05	8957
bin	2.42792e-05	9051
bin	2.43504e-05	8758
bin	2.44216e-05	8918
bin	2.44928e-05	9003
bin	2.4564e-05	8772
bin	2.46352e-05	8958
bin	2.47064e-05	8802
bin	2.47776e-05	8860
bin	2.48488e-05	8651
bin	2.492e-05	8910
bin	2.49912e-05	8718
bin	2.50624e-05	8735
bin	2.51336e-05	8611
bin	2.52048e-05	8804
bin	2.5276e-05	8688
bin	2.53472e-05	8657
bin	2.54184e-05	8942
bin	2.54896e-05	8741
bin	2.55608e-05	8745
bin	2.5632e-05	8592
bin	2.57032e-05	8774
bin	2.57744e-05	8632
bin	2.58456e-05	8719
bin	2.59168e-05	8583
bin	2.5988e-05	8535
bin	2.60592e-05	8734
bin	2.61304e-05	8384
bin	2.62016e-05	8696
bin	2.62728e-05	8328
bin	2.6344e-05	8491
bin	2.64152e-05	8405
bin	2.64864e-05	8597
bin	2.65576e-05	8476
bin	2.66288e-05	8638
bin	2.67e-05	8393
bin	2.67712e-05	8521
bin	2.68424e-05	8309
bin	2.69136e-05	8402
bin	2.69848e-05	8420
bin	2.7056e-05	8187
bin	2.71272e-05	8285
bin	2.71984e-05	8253
bin	2.72696e-05	8211
bin	2.73408e-05	8206
bin	2.7412e-05	8372
bin	2.74832e-05	7905
bin	2.75544e-05	8177
bin	2.76256e-05	8062
bin	2.76968e-05	8128
bin	2.7768e-05	8086
bin	2.78392e-05	8160
bin	2.79104e-05	8130
bin	2.79816e-05	8134
bin	2.80528e-05	8048
bin	2.8124e-05	8030
bin	2.81952e-05	8068
bin	2.82664e-05	7983
bin	2.83376e-05	8011
bin	2.84088e-05	7932
bin	2.848e-05	7867
bin	2.85512e-05	7829
bin	2.86224e-05	7911
bin	2.86936e-05	7881
bin	2.87648e-05	7662
bin	2.8836e-05	7993
bin	2.89072e-05	7786
bin	2.89784e-05	7730
bin	2.90496e-05	7661
bin	2.91208e-05	7835
bin	2.9192e-05	7712
bin	2.92632e-05	7710
bin	2.93344e-05	7455
bin	2.94056e-05	7419
bin	2.94768e-05	7727
bin	2.9548e-05	7511
bin	2.96192e-05	7538
bin	2.96904e-05	7345
bin	2.97616e-05	7660
bin	2.98328e-05	7341
bin	2.9904e-05	7407
bin	2.99752e-05	7337
bin	3.00464e-05	7382
bin	3.01176e-05	7339
bin	3.01888e-05	7285
bin	3.026e-05	7238
bin	3.03312e-05	7204
bin	3.04024e-05	7158
bin	3.04736e-05	7191
bin	3.05448e-05	7301
bin	3.0616e-05	7156
bin	3.06872e-05	7256
bin	3.07584e-05	7088
bin	3.08296e-05	7207
bin	3.09008e-05	7257
bin	3.0972e-05	7079
bin	3.10432e-05	7322
bin	3.11144e-05	7069
bin	3.11856e-05	7055
bin	3.12568e-05	6983
bin	3.1328e-05	7029
bin	3.13992e-05	6869
bin	3.14704e-05	6976
bin	3.15416e-05	6926
bin	3.16128e-05	6988
bin	3.1684e-05	6844
bin	3.17552e-05	6732
bin	3.18264e-05	7066
bin	3.18976e-05	6786
bin	3.19688e-05	6794
bin	3.204e-05	6694
bin	3.21112e-05	6761
bin	3.21824e-05	6529
bin	3.22536e-05	6569
bin	3.23248e-05	6624
bin	3.2396e-05	6732
bin	3.24672e-05	6705
bin	3.25384e-05	6572
bin	3.26096e-05	6860
bin	3.26808e-05	6505
bin	3.2752e-05	6729
bin	3.28232e-05	6621
bin	3.28944e-05	6721
bin	3.29656e-05	6495
bin	3.30368e-05	6642
bin	3.3108e-05	6405
bin	3.31792e-05	6613
bin	3.32504e-05	6497
bin	3.33216e-05	6332
bin	3.33928e-05	6509
bin	3.3464e-05	6423
bin	3.35352e-05	6514
bin	3.36064e-05	6249
bin	3.36776e-05	6403
bin	3.37488e-05	6220
bin	3.382e-05	6313
bin	3.38912e-05	6148
bin	3.39624e-05	6242
bin	3.40336e-05	6253
bin	3.41048e-05	6180
bin	3.4176e-05	6367
bin	3.42472e-05	6201
bin	3.43184e-05	6165
bin	3.43896e-05	5890
bin	3.44608e-05	6182
bin	3.4532e-05	5919
bin	3.46032e-05	6029
bin	3.46744e-05	5897
bin	3.47456e-05	6045
bin	3.48168e-05	6038
bin	3.4888e-05	5919
bin	3.49592e-05	6018
bin	3.50304e-05	5798
bin	3.51016e-05	5966
bin	3.51728e-05	5812
bin	3.5244e-05	5865
bin	3.53152e-05	5752
bin	3.53864e-05	5818
bin	3.54576e-05	5695
bin	3.55288e-05	5775
bin	3.56e-05	2283197
statistic Torus3d_bub.timer 	"Life Times"
field count 6291456
field mean 0.00016134887905572
field stddev 9.5562412651026e-05
field sum 1015.1193732284
field sqrsum 0.22124303922885
field min 5.62666129e-07
field max 0.000600775999952
bin	-INF	0
bin	0	4174
bin	8.544e-07	21010
bin	1.7088e-06	25451
bin	2.5632e-06	17634
bin	3.4176e-06	22222
bin	4.272e-06	24649
bin	5.1264e-06	31134
bin	5.9808e-06	22762
bin	6.8352e-06	25531
bin	7.6896e-06	22167
bin	8.544e-06	26628
bin	9.3984e-06	32402
bin	1.02528e-05	19599
bin	1.11072e-05	39220
bin	1.19616e-05	28352
bin	1.2816e-05	18809
bin	1.36704e-05	13618
bin	1.45248e-05	16388
bin	1.53792e-05	15437
bin	1.62336e-05	16445
bin	1.7088e-05	14588
bin	1.79424e-05	14390
bin	1.87968e-05	15041
bin	1.96512e-05	14074
bin	2.05056e-05	11869
bin	2.136e-05	11170
bin	2.22144e-05	10844
bin	2.30688e-05	10860
bin	2.39232e-05	10008
bin	2.47776e-05	10267
bin	2.5632e-05	10130
bin	2.64864e-05	10461
bin	2.73408e-05	10400
bin	2.81952e-05	11304
bin	2.90496e-05	10715
bin	2.9904e-05	10304
bin	3.07584e-05	10432
bin	3.16128e-05	10586
bin	3.24672e-05	11223
bin	3.33216e-05	10246
bin	3.4176e-05	10289
bin	3.50304e-05	10380
bin	3.58848e-05	10931
bin	3.67392e-05	10629
bin	3.75936e-05	10994
bin	3.8448e-05	11195
bin	3.93024e-05	10919
bin	4.01568e-05	11187
bin	4.10112e-05	11327
bin	4.18656e-05	11439
bin	4.272e-05	11351
bin	4.35744e-05	11764
bin	4.44288e-05	11712
bin	4.52832e-05	12056
bin	4.61376e-05	12011
bin	4.6992e-05	12270
bin	4.78464e-05	12399
bin	4.87008e-05	12411
bin	4.95552e-05	12753
bin	5.04096e-05	12974
bin	5.1264e-05	13634
bin	5.21184e-05	13611
bin	5.29728e-05	14226
bin	5.38272e-05	14456
bin	5.46816e-05	14681
bin	5.5536e-05	14547
bin	5.63904e-05	15200
bin	5.72448e-05	15323
bin	5.80992e-05	15119
bin	5.89536e-05	15288
bin	5.9808e-05	15714
bin	6.06624e-05	15808
bin	6.15168e-05	15344
bin	6.23712e-05	15672
bin	6.32256e-05	15833
bin	6.408e-05	16264
bin	6.49344e-05	16106
bin	6.57888e-05	16201
bin	6.66432e-05	16323
bin	6.74976e-05	16434
bin	6.8352e-05	16277
bin	6.92064e-05	16411
bin	7.00608e-05	16433
bin	7.09152e-05	16423
bin	7.17696e-05	16459
bin	7.2624e-05	16552
bin	7.34784e-05	16883
bin	7.43328e-05	16683
bin	7.51872e-05	16852
bin	7.60416e-05	16769
bin	7.6896e-05	17174
bin	7.77504e-05	16886
bin	7.86048e-05	16824
bin	7.94592e-05	16882
bin	8.03136e-05	16883
bin	8.1168e-05	16872
bin	8.20224e-05	17048
bin	8.28768e-05	17166
bin	8.37312e-05	16911
bin	8.45856e-05	17033
bin	8.544e-05	17152
bin	8.62944e-05	17080
bin	8.71488e-05	17274
bin	8.80032e-05	17153
bin	8.88576e-05	17382
bin	8.9712e-05	17399
bin	9.05664e-05	17483
bin	9.14208e-05	17452
bin	9.22752e-05	17510
bin	9.31296e-05	17630
bin	9.3984e-05	17526
bin	9.48384e-05	17619
bin	9.56928e-05	17808
bin	9.65472e-05	17552
bin	9.74016e-05	17549
bin	9.8256e-05	17674
bin	9.91104e-05	17529
bin	9.99648e-05	17559
bin	0.0001008192	17761
bin	0.0001016736	17859
bin	0.000102528	17883
bin	0.0001033824	18004
bin	0.0001042368	18328
bin	0.0001050912	18226
bin	0.0001059456	18545
bin	0.0001068	18458
bin	0.0001076544	18826
bin	0.0001085088	18799
bin	0.0001093632	18803
bin	0.0001102176	18571
bin	0.000111072	18642
bin	0.0001119264	18734
bin	0.0001127808	18905
bin	0.0001136352	18816
bin	0.0001144896	18891
bin	0.000115344	19016
bin	0.0001161984	19242
bin	0.0001170528	18850
bin	0.0001179072	18903
bin	0.0001187616	19137
bin	0.000119616	19388
bin	0.0001204704	19447
bin	0.0001213248	19220
bin	0.0001221792	19404
bin	0.0001230336	19727
bin	0.000123888	19381
bin	0.0001247424	19664
bin	0.0001255968	19668
bin	0.0001264512	19652
bin	0.0001273056	19690
bin	0.00012816	19958
bin	0.0001290144	19879
bin	0.0001298688	20125
bin	0.0001307232	19980
bin	0.0001315776	19977
bin	0.000132432	20002
bin	0.0001332864	19796
bin	0.0001341408	19959
bin	0.0001349952	19867
bin	0.0001358496	19950
bin	0.000136704	19873
bin	0.0001375584	19676
bin	0.0001384128	19745
bin	0.0001392672	19787
bin	0.0001401216	19840
bin	0.000140976	19897
bin	0.0001418304	19719
bin	0.0001426848	19747
bin	0.0001435392	20092
bin	0.0001443936	20050
bin	0.000145248	20465
bin	0.0001461024	20026
bin	0.0001469568	20286
bin	0.0001478112	20171
bin	0.0001486656	20379
bin	0.00014952	20541
bin	0.0001503744	20499
bin	0.0001512288	20284
bin	0.0001520832	20541
bin	0.0001529376	20343
bin	0.000153792	20421
bin	0.0001546464	20532
bin	0.0001555008	20261
bin	0.0001563552	20345
bin	0.0001572096	20285
bin	0.000158064	20289
bin	0.0001589184	20115
bin	0.0001597728	20392
bin	0.0001606272	20488
bin	0.0001614816	20390
bin	0.000162336	20104
bin	0.0001631904	20445
bin	0.0001640448	20061
bin	0.0001648992	20041
bin	0.0001657536	20085
bin	0.000166608	20277
bin	0.0001674624	20037
bin	0.0001683168	20056
bin	0.0001691712	20036
bin	0.0001700256	19961
bin	0.00017088	20062
bin	0.0001717344	20139
bin	0.0001725888	20165
bin	0.0001734432	19950
bin	0.0001742976	19999
bin	0.000175152	19979
bin	0.0001760064	19809
bin	0.0001768608	19510
bin	0.0001777152	19379
bin	0.0001785696	19396
bin	0.000179424	19446
bin	0.0001802784	19425
bin	0.0001811328	19500
bin	0.0001819872	19160
bin	0.0001828416	19357
bin	0.000183696	19322
bin	0.0001845504	19221
bin	0.0001854048	19275
bin	0.0001862592	19055
bin	0.0001871136	19187
bin	0.000187968	19036
bin	0.0001888224	19150
bin	0.0001896768	19076
bin	0.0001905312	19044
bin	0.0001913856	18983
bin	0.00019224	18831
bin	0.0001930944	18519
bin	0.0001939488	18690
bin	0.0001948032	18637
bin	0.0001956576	18736
bin	0.000196512	18841
bin	0.0001973664	18664
bin	0.0001982208	18518
bin	0.0001990752	18474
bin	0.0001999296	18269
bin	0.000200784	18351
bin	0.0002016384	18342
bin	0.0002024928	18477
bin	0.0002033472	18004
bin	0.0002042016	18122
bin	0.000205056	18076
bin	0.0002059104	17900
bin	0.0002067648	18138
bin	0.0002076192	17908
bin	0.0002084736	17695
bin	0.000209328	17582
bin	0.0002101824	17357
bin	0.0002110368	17373
bin	0.0002118912	17510
bin	0.0002127456	17553
bin	0.0002136	17500
bin	0.0002144544	17242
bin	0.0002153088	17437
bin	0.0002161632	17337
bin	0.0002170176	17047
bin	0.000217872	17201
bin	0.0002187264	16811
bin	0.0002195808	16888
bin	0.0002204352	16784
bin	0.0002212896	16746
bin	0.000222144	16624
bin	0.0002229984	16664
bin	0.0002238528	16607
bin	0.0002247072	16472
bin	0.0002255616	16468
bin	0.000226416	16388
bin	0.0002272704	16185
bin	0.0002281248	15930
bin	0.0002289792	16016
bin	0.0002298336	16012
bin	0.000230688	15904
bin	0.0002315424	15825
bin	0.0002323968	15828
bin	0.0002332512	15804
bin	0.0002341056	15501
bin	0.00023496	15337
bin	0.0002358144	15279
bin	0.0002366688	15287
bin	0.0002375232	15009
bin	0.0002383776	15319
bin	0.000239232	15042
bin	0.0002400864	15009
bin	0.0002409408	14979
bin	0.0002417952	14883
bin	0.0002426496	14916
bin	0.000243504	14857
bin	0.0002443584	14849
bin	0.0002452128	14687
bin	0.0002460672	14639
bin	0.0002469216	14485
bin	0.000247776	14717
bin	0.0002486304	14546
bin	0.0002494848	14482
bin	0.0002503392	14311
bin	0.0002511936	14194
bin	0.000252048	14010
bin	0.0002529024	14139
bin	0.0002537568	14167
bin	0.0002546112	14121
bin	0.0002554656	13881
bin	0.00025632	13614
bin	0.0002571744	13255
bin	0.0002580288	13275
bin	0.0002588832	13152
bin	0.0002597376	13012
bin	0.000260592	12936
bin	0.0002614464	12669
bin	0.0002623008	12787
bin	0.0002631552	12549
bin	0.0002640096	12562
bin	0.000264864	12524
bin	0.0002657184	12340
bin	0.0002665728	12267
bin	0.0002674272	12251
bin	0.0002682816	12341
bin	0.000269136	12112
bin	0.0002699904	12102
bin	0.0002708448	11909
bin	0.0002716992	11940
bin	0.0002725536	11747
bin	0.000273408	11911
bin	0.0002742624	11720
bin	0.0002751168	11557
bin	0.0002759712	11446
bin	0.0002768256	11236
bin	0.00027768	11259
bin	0.0002785344	11122
bin	0.0002793888	11044
bin	0.0002802432	10972
bin	0.0002810976	10841
bin	0.000281952	10646
bin	0.0002828064	10460
bin	0.0002836608	10436
bin	0.0002845152	10372
bin	0.0002853696	10013
bin	0.000286224	10005
bin	0.0002870784	9963
bin	0.0002879328	9830
bin	0.0002887872	9559
bin	0.0002896416	9421
bin	0.000290496	9672
bin	0.0002913504	9413
bin	0.0002922048	9460
bin	0.0002930592	9265
bin	0.0002939136	9284
bin	0.000294768	9328
bin	0.0002956224	8906
bin	0.0002964768	8859
bin	0.0002973312	8611
bin	0.0002981856	8868
bin	0.00029904	8712
bin	0.0002998944	8471
bin	0.0003007488	8270
bin	0.0003016032	8443
bin	0.0003024576	8093
bin	0.000303312	8171
bin	0.0003041664	8121
bin	0.0003050208	8067
bin	0.0003058752	7954
bin	0.0003067296	7904
bin	0.000307584	7847
bin	0.0003084384	7820
bin	0.0003092928	7738
bin	0.0003101472	7817
bin	0.0003110016	7736
bin	0.000311856	7681
bin	0.0003127104	7644
bin	0.0003135648	7486
bin	0.0003144192	7466
bin	0.0003152736	7449
bin	0.000316128	7248
bin	0.0003169824	7056
bin	0.0003178368	7007
bin	0.0003186912	7043
bin	0.0003195456	6731
bin	0.0003204	6629
bin	0.0003212544	6587
bin	0.0003221088	6459
bin	0.0003229632	6315
bin	0.0003238176	6312
bin	0.000324672	6210
bin	0.0003255264	5873
bin	0.0003263808	5868
bin	0.0003272352	5744
bin	0.0003280896	5626
bin	0.000328944	5650
bin	0.0003297984	5629
bin	0.0003306528	5534
bin	0.0003315072	5428
bin	0.0003323616	5325
bin	0.000333216	5146
bin	0.0003340704	5154
bin	0.0003349248	5074
bin	0.0003357792	4995
bin	0.0003366336	4833
bin	0.000337488	4742
bin	0.0003383424	4593
bin	0.0003391968	4639
bin	0.0003400512	4385
bin	0.0003409056	4354
bin	0.00034176	4317
bin	0.0003426144	4258
bin	0.0003434688	4196
bin	0.0003443232	4024
bin	0.0003451776	3909
bin	0.000346032	3867
bin	0.0003468864	3834
bin	0.0003477408	3658
bin	0.0003485952	3609
bin	0.0003494496	3619
bin	0.000350304	3465
bin	0.0003511584	3545
bin	0.0003520128	3602
bin	0.0003528672	3431
bin	0.0003537216	3418
bin	0.000354576	3298
bin	0.0003554304	3173
bin	0.0003562848	3164
bin	0.0003571392	3107
bin	0.0003579936	3008
bin	0.000358848	3017
bin	0.0003597024	3002
bin	0.0003605568	2920
bin	0.0003614112	2919
bin	0.0003622656	2902
bin	0.00036312	2901
bin	0.0003639744	2792
bin	0.0003648288	2878
bin	0.0003656832	2742
bin	0.0003665376	2738
bin	0.000367392	2711
bin	0.0003682464	2633
bin	0.0003691008	2600
bin	0.0003699552	2580
bin	0.0003708096	2559
bin	0.000371664	2521
bin	0.0003725184	2471
bin	0.0003733728	2363
bin	0.0003742272	2302
bin	0.0003750816	2276
bin	0.000375936	2233
bin	0.0003767904	2138
bin	0.0003776448	2095
bin	0.0003784992	2002
bin	0.0003793536	2016
bin	0.000380208	1865
bin	0.0003810624	1857
bin	0.0003819168	1833
bin	0.0003827712	1720
bin	0.0003836256	1664
bin	0.00038448	1652
bin	0.0003853344	1623
bin	0.0003861888	1567
bin	0.0003870432	1497
bin	0.0003878976	1472
bin	0.000388752	1398
bin	0.0003896064	1359
bin	0.0003904608	1362
bin	0.0003913152	1303
bin	0.0003921696	1334
bin	0.000393024	1275
bin	0.0003938784	1203
bin	0.0003947328	1162
bin	0.0003955872	1147
bin	0.0003964416	1155
bin	0.000397296	1176
bin	0.0003981504	1147
bin	0.0003990048	1140
bin	0.0003998592	1095
bin	0.0004007136	1109
bin	0.000401568	1080
bin	0.0004024224	1056
bin	0.0004032768	1050
bin	0.0004041312	1039
bin	0.0004049856	1047
bin	0.00040584	980
bin	0.0004066944	1022
bin	0.0004075488	987
bin	0.0004084032	945
bin	0.0004092576	896
bin	0.000410112	870
bin	0.0004109664	824
bin	0.0004118208	826
bin	0.0004126752	821
bin	0.0004135296	823
bin	0.000414384	791
bin	0.0004152384	747
bin	0.0004160928	756
bin	0.0004169472	683
bin	0.0004178016	675
bin	0.000418656	685
bin	0.0004195104	668
bin	0.0004203648	619
bin	0.0004212192	583
bin	0.0004220736	587
bin	0.000422928	606
bin	0.0004237824	583
bin	0.0004246368	580
bin	0.0004254912	580
bin	0.0004263456	512
bin	0.0004272	16561
