version 2
run Butterfly-95-20120709-12:29:35-23764
attr alg 3
attr buf 8
attr configname Butterfly
attr datetime 20120709-12:29:35
attr delta 2.4
attr experiment Butterfly
attr ext true
attr inifile altro.ini
attr iterationvars "$buf=8, $ext=true, $ofedge=2, $delta=2.4, $alg=3"
attr iterationvars2 "$buf=8, $ext=true, $ofedge=2, $delta=2.4, $alg=3, $repetition=0"
attr measurement "$buf=8, $ext=true, $ofedge=2, $delta=2.4, $alg=3"
attr network Torus3d_bub
attr ofedge 2
attr processid 23764
attr repetition 0
attr replication #0
attr resultdir altro-results
attr runnumber 95
attr seedset 95

scalar . 	alg 	3
scalar . 	buf 	8
scalar . 	delta 	2.4
scalar . 	ofedge 	2
scalar Torus3d_bub.timer 	#endTime 	0.0010172216651
scalar Torus3d_bub.timer 	#totalHops 	46156439
scalar Torus3d_bub.timer 	#totalPacks 	6291456
scalar Torus3d_bub.timer 	#totalDerouted 	3901175
scalar Torus3d_bub.timer 	#totalOutFlanked 	3711012
scalar Torus3d_bub.timer 	#totalCQRed 	190163
scalar Torus3d_bub.timer 	#LB 	0.000786432
scalar Torus3d_bub.timer 	#ratio 	0.77311762714245
statistic Torus3d_bub.timer 	"Hop Times"
field count 6291456
field mean 6.4708921377444e-05
field stddev 9.009302316129e-05
field sum 407.11333165365
field sqrsum 0.077410049697565
field min 5.56388886e-07
field max 0.000718177332911
bin	-INF	0
bin	0	0
bin	7.12e-08	0
bin	1.424e-07	0
bin	2.136e-07	0
bin	2.848e-07	0
bin	3.56e-07	0
bin	4.272e-07	0
bin	4.984e-07	1024
bin	5.696e-07	1024
bin	6.408e-07	1024
bin	7.12e-07	4096
bin	7.832e-07	0
bin	8.544e-07	2048
bin	9.256e-07	5121
bin	9.968e-07	66
bin	1.068e-06	4034
bin	1.1392e-06	2082
bin	1.2104e-06	9102
bin	1.2816e-06	2605
bin	1.3528e-06	7142
bin	1.424e-06	6644
bin	1.4952e-06	14031
bin	1.5664e-06	5245
bin	1.6376e-06	5890
bin	1.7088e-06	12674
bin	1.78e-06	7553
bin	1.8512e-06	6611
bin	1.9224e-06	7366
bin	1.9936e-06	14346
bin	2.0648e-06	12717
bin	2.136e-06	8193
bin	2.2072e-06	8201
bin	2.2784e-06	14712
bin	2.3496e-06	4424
bin	2.4208e-06	13133
bin	2.492e-06	15136
bin	2.5632e-06	8695
bin	2.6344e-06	11911
bin	2.7056e-06	7322
bin	2.7768e-06	12079
bin	2.848e-06	6046
bin	2.9192e-06	7971
bin	2.9904e-06	5325
bin	3.0616e-06	11776
bin	3.1328e-06	4506
bin	3.204e-06	7814
bin	3.2752e-06	9416
bin	3.3464e-06	5066
bin	3.4176e-06	4740
bin	3.4888e-06	5577
bin	3.56e-06	8401
bin	3.6312e-06	4434
bin	3.7024e-06	5666
bin	3.7736e-06	4688
bin	3.8448e-06	9400
bin	3.916e-06	4558
bin	3.9872e-06	4582
bin	4.0584e-06	9053
bin	4.1296e-06	4874
bin	4.2008e-06	4663
bin	4.272e-06	4853
bin	4.3432e-06	8858
bin	4.4144e-06	4597
bin	4.4856e-06	4699
bin	4.5568e-06	4993
bin	4.628e-06	9071
bin	4.6992e-06	4706
bin	4.7704e-06	4862
bin	4.8416e-06	8755
bin	4.9128e-06	4745
bin	4.984e-06	4855
bin	5.0552e-06	4856
bin	5.1264e-06	9033
bin	5.1976e-06	4741
bin	5.2688e-06	4904
bin	5.34e-06	4930
bin	5.4112e-06	9162
bin	5.4824e-06	4744
bin	5.5536e-06	4910
bin	5.6248e-06	8911
bin	5.696e-06	4886
bin	5.7672e-06	4897
bin	5.8384e-06	4973
bin	5.9096e-06	8942
bin	5.9808e-06	4784
bin	6.052e-06	4791
bin	6.1232e-06	4973
bin	6.1944e-06	9053
bin	6.2656e-06	4940
bin	6.3368e-06	5189
bin	6.408e-06	9236
bin	6.4792e-06	4880
bin	6.5504e-06	5167
bin	6.6216e-06	5155
bin	6.6928e-06	9352
bin	6.764e-06	5141
bin	6.8352e-06	5141
bin	6.9064e-06	5272
bin	6.9776e-06	9464
bin	7.0488e-06	5301
bin	7.12e-06	5495
bin	7.1912e-06	9442
bin	7.2624e-06	5239
bin	7.3336e-06	5481
bin	7.4048e-06	5408
bin	7.476e-06	9467
bin	7.5472e-06	5300
bin	7.6184e-06	5210
bin	7.6896e-06	5576
bin	7.7608e-06	9628
bin	7.832e-06	5219
bin	7.9032e-06	5499
bin	7.9744e-06	9595
bin	8.0456e-06	5359
bin	8.1168e-06	5618
bin	8.188e-06	5470
bin	8.2592e-06	7439
bin	8.3304e-06	5228
bin	8.4016e-06	5207
bin	8.4728e-06	5481
bin	8.544e-06	9398
bin	8.6152e-06	5293
bin	8.6864e-06	5352
bin	8.7576e-06	9429
bin	8.8288e-06	5363
bin	8.9e-06	5405
bin	8.9712e-06	5364
bin	9.0424e-06	9357
bin	9.1136e-06	5246
bin	9.1848e-06	5147
bin	9.256e-06	5487
bin	9.3272e-06	7354
bin	9.3984e-06	5251
bin	9.4696e-06	5374
bin	9.5408e-06	9418
bin	9.612e-06	5394
bin	9.6832e-06	5611
bin	9.7544e-06	5361
bin	9.8256e-06	9628
bin	9.8968e-06	5206
bin	9.968e-06	5290
bin	1.00392e-05	5543
bin	1.01104e-05	5354
bin	1.01816e-05	5358
bin	1.02528e-05	5512
bin	1.0324e-05	9618
bin	1.03952e-05	5490
bin	1.04664e-05	5459
bin	1.05376e-05	5261
bin	1.06088e-05	7378
bin	1.068e-05	5440
bin	1.07512e-05	5469
bin	1.08224e-05	5434
bin	1.08936e-05	7310
bin	1.09648e-05	5393
bin	1.1036e-05	5530
bin	1.11072e-05	7453
bin	1.11784e-05	5484
bin	1.12496e-05	5430
bin	1.13208e-05	5437
bin	1.1392e-05	8431
bin	1.14632e-05	5356
bin	1.15344e-05	5580
bin	1.16056e-05	5533
bin	1.16768e-05	8369
bin	1.1748e-05	5352
bin	1.18192e-05	5423
bin	1.18904e-05	6444
bin	1.19616e-05	5382
bin	1.20328e-05	5452
bin	1.2104e-05	5472
bin	1.21752e-05	7378
bin	1.22464e-05	5521
bin	1.23176e-05	5421
bin	1.23888e-05	5671
bin	1.246e-05	7390
bin	1.25312e-05	5234
bin	1.26024e-05	5482
bin	1.26736e-05	8591
bin	1.27448e-05	5322
bin	1.2816e-05	5543
bin	1.28872e-05	5386
bin	1.29584e-05	7350
bin	1.30296e-05	5527
bin	1.31008e-05	5591
bin	1.3172e-05	5620
bin	1.32432e-05	5520
bin	1.33144e-05	5494
bin	1.33856e-05	5579
bin	1.34568e-05	7709
bin	1.3528e-05	5489
bin	1.35992e-05	5601
bin	1.36704e-05	5616
bin	1.37416e-05	7355
bin	1.38128e-05	5553
bin	1.3884e-05	5612
bin	1.39552e-05	5713
bin	1.40264e-05	6580
bin	1.40976e-05	5574
bin	1.41688e-05	5560
bin	1.424e-05	6580
bin	1.43112e-05	5738
bin	1.43824e-05	5724
bin	1.44536e-05	5558
bin	1.45248e-05	5492
bin	1.4596e-05	5572
bin	1.46672e-05	5464
bin	1.47384e-05	5694
bin	1.48096e-05	5484
bin	1.48808e-05	5407
bin	1.4952e-05	5719
bin	1.50232e-05	5548
bin	1.50944e-05	5586
bin	1.51656e-05	5650
bin	1.52368e-05	5688
bin	1.5308e-05	5511
bin	1.53792e-05	5638
bin	1.54504e-05	5557
bin	1.55216e-05	5806
bin	1.55928e-05	5764
bin	1.5664e-05	5589
bin	1.57352e-05	5648
bin	1.58064e-05	5552
bin	1.58776e-05	5718
bin	1.59488e-05	5626
bin	1.602e-05	5775
bin	1.60912e-05	5723
bin	1.61624e-05	5692
bin	1.62336e-05	5698
bin	1.63048e-05	5846
bin	1.6376e-05	5770
bin	1.64472e-05	5627
bin	1.65184e-05	5830
bin	1.65896e-05	5718
bin	1.66608e-05	5718
bin	1.6732e-05	5668
bin	1.68032e-05	5776
bin	1.68744e-05	5689
bin	1.69456e-05	5870
bin	1.70168e-05	5728
bin	1.7088e-05	5902
bin	1.71592e-05	5622
bin	1.72304e-05	5658
bin	1.73016e-05	5727
bin	1.73728e-05	5651
bin	1.7444e-05	5662
bin	1.75152e-05	5805
bin	1.75864e-05	5769
bin	1.76576e-05	5640
bin	1.77288e-05	5742
bin	1.78e-05	5733
bin	1.78712e-05	5842
bin	1.79424e-05	5638
bin	1.80136e-05	5629
bin	1.80848e-05	5807
bin	1.8156e-05	5667
bin	1.82272e-05	5740
bin	1.82984e-05	5745
bin	1.83696e-05	5863
bin	1.84408e-05	5660
bin	1.8512e-05	5649
bin	1.85832e-05	5673
bin	1.86544e-05	5797
bin	1.87256e-05	5752
bin	1.87968e-05	5858
bin	1.8868e-05	5871
bin	1.89392e-05	5943
bin	1.90104e-05	5808
bin	1.90816e-05	5864
bin	1.91528e-05	5838
bin	1.9224e-05	5904
bin	1.92952e-05	6009
bin	1.93664e-05	5816
bin	1.94376e-05	5993
bin	1.95088e-05	5764
bin	1.958e-05	5783
bin	1.96512e-05	5662
bin	1.97224e-05	5823
bin	1.97936e-05	5846
bin	1.98648e-05	5810
bin	1.9936e-05	5738
bin	2.00072e-05	5740
bin	2.00784e-05	5805
bin	2.01496e-05	5559
bin	2.02208e-05	6003
bin	2.0292e-05	5741
bin	2.03632e-05	5920
bin	2.04344e-05	5793
bin	2.05056e-05	5811
bin	2.05768e-05	5848
bin	2.0648e-05	5910
bin	2.07192e-05	5922
bin	2.07904e-05	5714
bin	2.08616e-05	6036
bin	2.09328e-05	5786
bin	2.1004e-05	5928
bin	2.10752e-05	5843
bin	2.11464e-05	5935
bin	2.12176e-05	5911
bin	2.12888e-05	5806
bin	2.136e-05	5872
bin	2.14312e-05	5951
bin	2.15024e-05	5943
bin	2.15736e-05	5910
bin	2.16448e-05	6016
bin	2.1716e-05	5868
bin	2.17872e-05	5844
bin	2.18584e-05	5893
bin	2.19296e-05	5952
bin	2.20008e-05	5896
bin	2.2072e-05	5901
bin	2.21432e-05	6080
bin	2.22144e-05	5927
bin	2.22856e-05	6004
bin	2.23568e-05	5880
bin	2.2428e-05	6052
bin	2.24992e-05	5883
bin	2.25704e-05	6134
bin	2.26416e-05	6097
bin	2.27128e-05	6089
bin	2.2784e-05	5987
bin	2.28552e-05	5963
bin	2.29264e-05	5985
bin	2.29976e-05	5981
bin	2.30688e-05	6042
bin	2.314e-05	5964
bin	2.32112e-05	6092
bin	2.32824e-05	6084
bin	2.33536e-05	6216
bin	2.34248e-05	6028
bin	2.3496e-05	5947
bin	2.35672e-05	6100
bin	2.36384e-05	6062
bin	2.37096e-05	6046
bin	2.37808e-05	6012
bin	2.3852e-05	6086
bin	2.39232e-05	6058
bin	2.39944e-05	6180
bin	2.40656e-05	5809
bin	2.41368e-05	6111
bin	2.4208e-05	5956
bin	2.42792e-05	5995
bin	2.43504e-05	6029
bin	2.44216e-05	5984
bin	2.44928e-05	6007
bin	2.4564e-05	5925
bin	2.46352e-05	5940
bin	2.47064e-05	5793
bin	2.47776e-05	5943
bin	2.48488e-05	5986
bin	2.492e-05	6079
bin	2.49912e-05	5863
bin	2.50624e-05	6180
bin	2.51336e-05	6022
bin	2.52048e-05	6217
bin	2.5276e-05	6092
bin	2.53472e-05	6146
bin	2.54184e-05	6211
bin	2.54896e-05	5941
bin	2.55608e-05	6079
bin	2.5632e-05	5997
bin	2.57032e-05	6102
bin	2.57744e-05	6158
bin	2.58456e-05	6091
bin	2.59168e-05	5981
bin	2.5988e-05	5964
bin	2.60592e-05	6055
bin	2.61304e-05	6007
bin	2.62016e-05	6205
bin	2.62728e-05	5835
bin	2.6344e-05	5999
bin	2.64152e-05	6020
bin	2.64864e-05	6107
bin	2.65576e-05	5967
bin	2.66288e-05	5978
bin	2.67e-05	6124
bin	2.67712e-05	6095
bin	2.68424e-05	5930
bin	2.69136e-05	5994
bin	2.69848e-05	6066
bin	2.7056e-05	5903
bin	2.71272e-05	6116
bin	2.71984e-05	5956
bin	2.72696e-05	6087
bin	2.73408e-05	5903
bin	2.7412e-05	6078
bin	2.74832e-05	6033
bin	2.75544e-05	6091
bin	2.76256e-05	5961
bin	2.76968e-05	6050
bin	2.7768e-05	6215
bin	2.78392e-05	5976
bin	2.79104e-05	6149
bin	2.79816e-05	6059
bin	2.80528e-05	6119
bin	2.8124e-05	5926
bin	2.81952e-05	6108
bin	2.82664e-05	5932
bin	2.83376e-05	6054
bin	2.84088e-05	6009
bin	2.848e-05	6242
bin	2.85512e-05	6159
bin	2.86224e-05	6057
bin	2.86936e-05	6109
bin	2.87648e-05	6068
bin	2.8836e-05	6160
bin	2.89072e-05	5977
bin	2.89784e-05	6189
bin	2.90496e-05	6159
bin	2.91208e-05	5988
bin	2.9192e-05	6035
bin	2.92632e-05	6161
bin	2.93344e-05	6030
bin	2.94056e-05	5968
bin	2.94768e-05	6022
bin	2.9548e-05	6156
bin	2.96192e-05	6087
bin	2.96904e-05	5996
bin	2.97616e-05	6275
bin	2.98328e-05	6230
bin	2.9904e-05	6107
bin	2.99752e-05	6105
bin	3.00464e-05	6170
bin	3.01176e-05	5983
bin	3.01888e-05	5971
bin	3.026e-05	6086
bin	3.03312e-05	6113
bin	3.04024e-05	6061
bin	3.04736e-05	6029
bin	3.05448e-05	6152
bin	3.0616e-05	5939
bin	3.06872e-05	6195
bin	3.07584e-05	6046
bin	3.08296e-05	6075
bin	3.09008e-05	6277
bin	3.0972e-05	5913
bin	3.10432e-05	6139
bin	3.11144e-05	6194
bin	3.11856e-05	6167
bin	3.12568e-05	6012
bin	3.1328e-05	6005
bin	3.13992e-05	6233
bin	3.14704e-05	6113
bin	3.15416e-05	6185
bin	3.16128e-05	6213
bin	3.1684e-05	6263
bin	3.17552e-05	6170
bin	3.18264e-05	6199
bin	3.18976e-05	6331
bin	3.19688e-05	6099
bin	3.204e-05	6081
bin	3.21112e-05	6116
bin	3.21824e-05	6196
bin	3.22536e-05	6023
bin	3.23248e-05	6236
bin	3.2396e-05	6066
bin	3.24672e-05	6151
bin	3.25384e-05	6007
bin	3.26096e-05	6135
bin	3.26808e-05	6399
bin	3.2752e-05	6103
bin	3.28232e-05	6189
bin	3.28944e-05	6015
bin	3.29656e-05	6345
bin	3.30368e-05	6133
bin	3.3108e-05	6238
bin	3.31792e-05	6200
bin	3.32504e-05	6181
bin	3.33216e-05	5929
bin	3.33928e-05	6049
bin	3.3464e-05	6247
bin	3.35352e-05	6152
bin	3.36064e-05	6106
bin	3.36776e-05	6086
bin	3.37488e-05	6252
bin	3.382e-05	6064
bin	3.38912e-05	6075
bin	3.39624e-05	6026
bin	3.40336e-05	6213
bin	3.41048e-05	6106
bin	3.4176e-05	5979
bin	3.42472e-05	6264
bin	3.43184e-05	6068
bin	3.43896e-05	6116
bin	3.44608e-05	6158
bin	3.4532e-05	6127
bin	3.46032e-05	5923
bin	3.46744e-05	5951
bin	3.47456e-05	6094
bin	3.48168e-05	6100
bin	3.4888e-05	5984
bin	3.49592e-05	5954
bin	3.50304e-05	6164
bin	3.51016e-05	5961
bin	3.51728e-05	5973
bin	3.5244e-05	6062
bin	3.53152e-05	6126
bin	3.53864e-05	5950
bin	3.54576e-05	5951
bin	3.55288e-05	6158
bin	3.56e-05	3281026
statistic Torus3d_bub.timer 	"Life Times"
field count 6291456
field mean 0.00028383580203979
field stddev 0.00017162005558816
field sum 1785.740459758
field sqrsum 0.69216208988031
field min 7.33333333e-07
field max 0.000804081665903
bin	-INF	0
bin	0	4096
bin	8.544e-07	13312
bin	1.7088e-06	20494
bin	2.5632e-06	16433
bin	3.4176e-06	15518
bin	4.272e-06	25175
bin	5.1264e-06	31986
bin	5.9808e-06	24887
bin	6.8352e-06	20412
bin	7.6896e-06	17429
bin	8.544e-06	27178
bin	9.3984e-06	15640
bin	1.02528e-05	19756
bin	1.11072e-05	16894
bin	1.19616e-05	23584
bin	1.2816e-05	18012
bin	1.36704e-05	13200
bin	1.45248e-05	11984
bin	1.53792e-05	9364
bin	1.62336e-05	7424
bin	1.7088e-05	6702
bin	1.79424e-05	7934
bin	1.87968e-05	7246
bin	1.96512e-05	6647
bin	2.05056e-05	7559
bin	2.136e-05	6335
bin	2.22144e-05	6122
bin	2.30688e-05	5962
bin	2.39232e-05	6604
bin	2.47776e-05	6333
bin	2.5632e-05	6174
bin	2.64864e-05	6987
bin	2.73408e-05	7133
bin	2.81952e-05	7238
bin	2.90496e-05	7176
bin	2.9904e-05	7704
bin	3.07584e-05	7451
bin	3.16128e-05	7597
bin	3.24672e-05	7634
bin	3.33216e-05	8304
bin	3.4176e-05	8095
bin	3.50304e-05	8606
bin	3.58848e-05	8729
bin	3.67392e-05	9045
bin	3.75936e-05	9001
bin	3.8448e-05	9115
bin	3.93024e-05	9435
bin	4.01568e-05	9489
bin	4.10112e-05	9545
bin	4.18656e-05	9638
bin	4.272e-05	9736
bin	4.35744e-05	9741
bin	4.44288e-05	9745
bin	4.52832e-05	9514
bin	4.61376e-05	10144
bin	4.6992e-05	9942
bin	4.78464e-05	9785
bin	4.87008e-05	9897
bin	4.95552e-05	9948
bin	5.04096e-05	10093
bin	5.1264e-05	10068
bin	5.21184e-05	10303
bin	5.29728e-05	10428
bin	5.38272e-05	10301
bin	5.46816e-05	9958
bin	5.5536e-05	10245
bin	5.63904e-05	10363
bin	5.72448e-05	9912
bin	5.80992e-05	9945
bin	5.89536e-05	10324
bin	5.9808e-05	9914
bin	6.06624e-05	9507
bin	6.15168e-05	9942
bin	6.23712e-05	9777
bin	6.32256e-05	9607
bin	6.408e-05	9625
bin	6.49344e-05	9443
bin	6.57888e-05	9562
bin	6.66432e-05	9155
bin	6.74976e-05	9292
bin	6.8352e-05	9278
bin	6.92064e-05	9085
bin	7.00608e-05	8994
bin	7.09152e-05	9121
bin	7.17696e-05	8949
bin	7.2624e-05	8780
bin	7.34784e-05	8785
bin	7.43328e-05	8683
bin	7.51872e-05	8817
bin	7.60416e-05	8723
bin	7.6896e-05	8798
bin	7.77504e-05	8718
bin	7.86048e-05	8510
bin	7.94592e-05	8620
bin	8.03136e-05	8728
bin	8.1168e-05	8733
bin	8.20224e-05	8762
bin	8.28768e-05	8749
bin	8.37312e-05	8856
bin	8.45856e-05	8750
bin	8.544e-05	8660
bin	8.62944e-05	8694
bin	8.71488e-05	8577
bin	8.80032e-05	8581
bin	8.88576e-05	8539
bin	8.9712e-05	8495
bin	9.05664e-05	8502
bin	9.14208e-05	8394
bin	9.22752e-05	8418
bin	9.31296e-05	8246
bin	9.3984e-05	8228
bin	9.48384e-05	8082
bin	9.56928e-05	8062
bin	9.65472e-05	8215
bin	9.74016e-05	8365
bin	9.8256e-05	8222
bin	9.91104e-05	8186
bin	9.99648e-05	8164
bin	0.0001008192	8058
bin	0.0001016736	8050
bin	0.000102528	8095
bin	0.0001033824	8081
bin	0.0001042368	8056
bin	0.0001050912	8159
bin	0.0001059456	8214
bin	0.0001068	8140
bin	0.0001076544	8220
bin	0.0001085088	8291
bin	0.0001093632	8136
bin	0.0001102176	8261
bin	0.000111072	8190
bin	0.0001119264	8391
bin	0.0001127808	8335
bin	0.0001136352	8210
bin	0.0001144896	8190
bin	0.000115344	8283
bin	0.0001161984	8180
bin	0.0001170528	8113
bin	0.0001179072	8297
bin	0.0001187616	8203
bin	0.000119616	8228
bin	0.0001204704	8127
bin	0.0001213248	8285
bin	0.0001221792	8257
bin	0.0001230336	8068
bin	0.000123888	8147
bin	0.0001247424	8168
bin	0.0001255968	8060
bin	0.0001264512	7972
bin	0.0001273056	8107
bin	0.00012816	8173
bin	0.0001290144	8022
bin	0.0001298688	8260
bin	0.0001307232	8195
bin	0.0001315776	8394
bin	0.000132432	8371
bin	0.0001332864	8302
bin	0.0001341408	8467
bin	0.0001349952	8397
bin	0.0001358496	8495
bin	0.000136704	8457
bin	0.0001375584	8210
bin	0.0001384128	8187
bin	0.0001392672	8530
bin	0.0001401216	8336
bin	0.000140976	8367
bin	0.0001418304	8311
bin	0.0001426848	8553
bin	0.0001435392	8481
bin	0.0001443936	8456
bin	0.000145248	8591
bin	0.0001461024	8349
bin	0.0001469568	8476
bin	0.0001478112	8534
bin	0.0001486656	8621
bin	0.00014952	8527
bin	0.0001503744	8586
bin	0.0001512288	8611
bin	0.0001520832	8700
bin	0.0001529376	8649
bin	0.000153792	8714
bin	0.0001546464	8687
bin	0.0001555008	8424
bin	0.0001563552	8662
bin	0.0001572096	8631
bin	0.000158064	8827
bin	0.0001589184	8888
bin	0.0001597728	8900
bin	0.0001606272	8927
bin	0.0001614816	8884
bin	0.000162336	8914
bin	0.0001631904	8992
bin	0.0001640448	9015
bin	0.0001648992	8936
bin	0.0001657536	8954
bin	0.000166608	9002
bin	0.0001674624	8996
bin	0.0001683168	9032
bin	0.0001691712	9056
bin	0.0001700256	9126
bin	0.00017088	9245
bin	0.0001717344	9345
bin	0.0001725888	9315
bin	0.0001734432	9273
bin	0.0001742976	9400
bin	0.000175152	9253
bin	0.0001760064	9400
bin	0.0001768608	9299
bin	0.0001777152	9123
bin	0.0001785696	9179
bin	0.000179424	9261
bin	0.0001802784	9221
bin	0.0001811328	9133
bin	0.0001819872	9068
bin	0.0001828416	9162
bin	0.000183696	9139
bin	0.0001845504	9102
bin	0.0001854048	9110
bin	0.0001862592	9252
bin	0.0001871136	9349
bin	0.000187968	9188
bin	0.0001888224	9446
bin	0.0001896768	9538
bin	0.0001905312	9460
bin	0.0001913856	9489
bin	0.00019224	9337
bin	0.0001930944	9411
bin	0.0001939488	9287
bin	0.0001948032	9502
bin	0.0001956576	9467
bin	0.000196512	9282
bin	0.0001973664	9302
bin	0.0001982208	9412
bin	0.0001990752	9460
bin	0.0001999296	9644
bin	0.000200784	9521
bin	0.0002016384	9661
bin	0.0002024928	9661
bin	0.0002033472	9575
bin	0.0002042016	9541
bin	0.000205056	9489
bin	0.0002059104	9708
bin	0.0002067648	9523
bin	0.0002076192	9519
bin	0.0002084736	9664
bin	0.000209328	9432
bin	0.0002101824	9654
bin	0.0002110368	9757
bin	0.0002118912	9661
bin	0.0002127456	9615
bin	0.0002136	9810
bin	0.0002144544	9713
bin	0.0002153088	9723
bin	0.0002161632	9580
bin	0.0002170176	9603
bin	0.000217872	9623
bin	0.0002187264	9611
bin	0.0002195808	9619
bin	0.0002204352	9769
bin	0.0002212896	9590
bin	0.000222144	9639
bin	0.0002229984	9517
bin	0.0002238528	9334
bin	0.0002247072	9544
bin	0.0002255616	9604
bin	0.000226416	9635
bin	0.0002272704	9712
bin	0.0002281248	9646
bin	0.0002289792	9692
bin	0.0002298336	9697
bin	0.000230688	9795
bin	0.0002315424	9846
bin	0.0002323968	9831
bin	0.0002332512	9878
bin	0.0002341056	9711
bin	0.00023496	9598
bin	0.0002358144	9754
bin	0.0002366688	9589
bin	0.0002375232	9683
bin	0.0002383776	9563
bin	0.000239232	9654
bin	0.0002400864	9578
bin	0.0002409408	9384
bin	0.0002417952	9481
bin	0.0002426496	9591
bin	0.000243504	9714
bin	0.0002443584	9818
bin	0.0002452128	9704
bin	0.0002460672	9923
bin	0.0002469216	9722
bin	0.000247776	9808
bin	0.0002486304	9655
bin	0.0002494848	9844
bin	0.0002503392	9908
bin	0.0002511936	9874
bin	0.000252048	9783
bin	0.0002529024	9855
bin	0.0002537568	9891
bin	0.0002546112	9685
bin	0.0002554656	9772
bin	0.00025632	9768
bin	0.0002571744	10054
bin	0.0002580288	9812
bin	0.0002588832	9925
bin	0.0002597376	9785
bin	0.000260592	9757
bin	0.0002614464	9777
bin	0.0002623008	9776
bin	0.0002631552	9732
bin	0.0002640096	9885
bin	0.000264864	9837
bin	0.0002657184	9996
bin	0.0002665728	9766
bin	0.0002674272	9764
bin	0.0002682816	9910
bin	0.000269136	9905
bin	0.0002699904	9814
bin	0.0002708448	9853
bin	0.0002716992	9799
bin	0.0002725536	9934
bin	0.000273408	9605
bin	0.0002742624	9584
bin	0.0002751168	9685
bin	0.0002759712	9722
bin	0.0002768256	9696
bin	0.00027768	9549
bin	0.0002785344	9645
bin	0.0002793888	9658
bin	0.0002802432	9809
bin	0.0002810976	9627
bin	0.000281952	9845
bin	0.0002828064	9804
bin	0.0002836608	9836
bin	0.0002845152	9943
bin	0.0002853696	9834
bin	0.000286224	9811
bin	0.0002870784	9707
bin	0.0002879328	10024
bin	0.0002887872	9748
bin	0.0002896416	9924
bin	0.000290496	9801
bin	0.0002913504	9944
bin	0.0002922048	9870
bin	0.0002930592	9991
bin	0.0002939136	9900
bin	0.000294768	9940
bin	0.0002956224	9663
bin	0.0002964768	9980
bin	0.0002973312	9914
bin	0.0002981856	9947
bin	0.00029904	10013
bin	0.0002998944	9902
bin	0.0003007488	9801
bin	0.0003016032	9827
bin	0.0003024576	9845
bin	0.000303312	9837
bin	0.0003041664	9790
bin	0.0003050208	9728
bin	0.0003058752	9850
bin	0.0003067296	9880
bin	0.000307584	9981
bin	0.0003084384	9797
bin	0.0003092928	9814
bin	0.0003101472	9780
bin	0.0003110016	9657
bin	0.000311856	9611
bin	0.0003127104	9710
bin	0.0003135648	9863
bin	0.0003144192	9710
bin	0.0003152736	9664
bin	0.000316128	9594
bin	0.0003169824	9623
bin	0.0003178368	9545
bin	0.0003186912	9504
bin	0.0003195456	9501
bin	0.0003204	9493
bin	0.0003212544	9447
bin	0.0003221088	9537
bin	0.0003229632	9622
bin	0.0003238176	9615
bin	0.000324672	9406
bin	0.0003255264	9478
bin	0.0003263808	9347
bin	0.0003272352	9530
bin	0.0003280896	9471
bin	0.000328944	9353
bin	0.0003297984	9437
bin	0.0003306528	9417
bin	0.0003315072	9607
bin	0.0003323616	9342
bin	0.000333216	9295
bin	0.0003340704	9312
bin	0.0003349248	9312
bin	0.0003357792	9324
bin	0.0003366336	9197
bin	0.000337488	9381
bin	0.0003383424	9488
bin	0.0003391968	9326
bin	0.0003400512	9363
bin	0.0003409056	9312
bin	0.00034176	9299
bin	0.0003426144	9222
bin	0.0003434688	9416
bin	0.0003443232	9363
bin	0.0003451776	9209
bin	0.000346032	9172
bin	0.0003468864	9245
bin	0.0003477408	9273
bin	0.0003485952	9196
bin	0.0003494496	9180
bin	0.000350304	9224
bin	0.0003511584	9317
bin	0.0003520128	9103
bin	0.0003528672	9302
bin	0.0003537216	9324
bin	0.000354576	9298
bin	0.0003554304	9200
bin	0.0003562848	9266
bin	0.0003571392	9177
bin	0.0003579936	9236
bin	0.000358848	9163
bin	0.0003597024	9354
bin	0.0003605568	9261
bin	0.0003614112	9152
bin	0.0003622656	9118
bin	0.00036312	9164
bin	0.0003639744	9147
bin	0.0003648288	9006
bin	0.0003656832	9032
bin	0.0003665376	9079
bin	0.000367392	9077
bin	0.0003682464	9222
bin	0.0003691008	9087
bin	0.0003699552	9119
bin	0.0003708096	9145
bin	0.000371664	9165
bin	0.0003725184	9113
bin	0.0003733728	9136
bin	0.0003742272	9250
bin	0.0003750816	9270
bin	0.000375936	9118
bin	0.0003767904	9270
bin	0.0003776448	9381
bin	0.0003784992	9288
bin	0.0003793536	9402
bin	0.000380208	9315
bin	0.0003810624	9342
bin	0.0003819168	9278
bin	0.0003827712	9323
bin	0.0003836256	9258
bin	0.00038448	9244
bin	0.0003853344	9153
bin	0.0003861888	9153
bin	0.0003870432	9068
bin	0.0003878976	9090
bin	0.000388752	9231
bin	0.0003896064	9309
bin	0.0003904608	9183
bin	0.0003913152	9029
bin	0.0003921696	9078
bin	0.000393024	9087
bin	0.0003938784	9201
bin	0.0003947328	9095
bin	0.0003955872	9123
bin	0.0003964416	9022
bin	0.000397296	9046
bin	0.0003981504	8905
bin	0.0003990048	8919
bin	0.0003998592	8986
bin	0.0004007136	8847
bin	0.000401568	8778
bin	0.0004024224	8919
bin	0.0004032768	8921
bin	0.0004041312	8927
bin	0.0004049856	8937
bin	0.00040584	8873
bin	0.0004066944	8953
bin	0.0004075488	8795
bin	0.0004084032	8747
bin	0.0004092576	8833
bin	0.000410112	8758
bin	0.0004109664	8915
bin	0.0004118208	8656
bin	0.0004126752	8732
bin	0.0004135296	8912
bin	0.000414384	8943
bin	0.0004152384	8737
bin	0.0004160928	8773
bin	0.0004169472	8739
bin	0.0004178016	8727
bin	0.000418656	8652
bin	0.0004195104	8755
bin	0.0004203648	8812
bin	0.0004212192	8664
bin	0.0004220736	8826
bin	0.000422928	8781
bin	0.0004237824	8686
bin	0.0004246368	8514
bin	0.0004254912	8777
bin	0.0004263456	8745
bin	0.0004272	1561011
