version 2
run Butterfly-41-20120709-10:43:08-22780
attr alg 1
attr buf 8
attr configname Butterfly
attr datetime 20120709-10:43:08
attr delta 2.2
attr experiment Butterfly
attr ext true
attr inifile altro.ini
attr iterationvars "$buf=8, $ext=true, $ofedge=1, $delta=2.2, $alg=1"
attr iterationvars2 "$buf=8, $ext=true, $ofedge=1, $delta=2.2, $alg=1, $repetition=0"
attr measurement "$buf=8, $ext=true, $ofedge=1, $delta=2.2, $alg=1"
attr network Torus3d_bub
attr ofedge 1
attr processid 22780
attr repetition 0
attr replication #0
attr resultdir altro-results
attr runnumber 41
attr seedset 41

scalar . 	alg 	1
scalar . 	buf 	8
scalar . 	delta 	2.2
scalar . 	ofedge 	1
scalar Torus3d_bub.timer 	#endTime 	0.000849754998695
scalar Torus3d_bub.timer 	#totalHops 	35797675
scalar Torus3d_bub.timer 	#totalPacks 	6291456
scalar Torus3d_bub.timer 	#totalDerouted 	4185111
scalar Torus3d_bub.timer 	#totalOutFlanked 	4185111
scalar Torus3d_bub.timer 	#totalCQRed 	0
scalar Torus3d_bub.timer 	#LB 	0.000786432
scalar Torus3d_bub.timer 	#ratio 	0.92548087532024
statistic Torus3d_bub.timer 	"Hop Times"
field count 6291456
field mean 4.5190157624724e-05
field stddev 5.2868061349746e-05
field sum 284.31188832901
field sqrsum 0.03043291653904
field min 4.43196964e-07
field max 0.000540054090302
bin	-INF	0
bin	0	0
bin	7.12e-08	0
bin	1.424e-07	0
bin	2.136e-07	0
bin	2.848e-07	0
bin	3.56e-07	0
bin	4.272e-07	4
bin	4.984e-07	20
bin	5.696e-07	27
bin	6.408e-07	38
bin	7.12e-07	5179
bin	7.832e-07	82
bin	8.544e-07	1145
bin	9.256e-07	5273
bin	9.968e-07	6344
bin	1.068e-06	2889
bin	1.1392e-06	5113
bin	1.2104e-06	6227
bin	1.2816e-06	8263
bin	1.3528e-06	872
bin	1.424e-06	7315
bin	1.4952e-06	10305
bin	1.5664e-06	6203
bin	1.6376e-06	5630
bin	1.7088e-06	10339
bin	1.78e-06	7976
bin	1.8512e-06	7306
bin	1.9224e-06	8407
bin	1.9936e-06	10711
bin	2.0648e-06	9024
bin	2.136e-06	6545
bin	2.2072e-06	9071
bin	2.2784e-06	15374
bin	2.3496e-06	8881
bin	2.4208e-06	9752
bin	2.492e-06	12406
bin	2.5632e-06	8006
bin	2.6344e-06	7196
bin	2.7056e-06	9489
bin	2.7768e-06	11265
bin	2.848e-06	9627
bin	2.9192e-06	8066
bin	2.9904e-06	7346
bin	3.0616e-06	11624
bin	3.1328e-06	9372
bin	3.204e-06	10613
bin	3.2752e-06	13748
bin	3.3464e-06	7026
bin	3.4176e-06	6061
bin	3.4888e-06	10271
bin	3.56e-06	9839
bin	3.6312e-06	5884
bin	3.7024e-06	7489
bin	3.7736e-06	9534
bin	3.8448e-06	10685
bin	3.916e-06	8489
bin	3.9872e-06	4207
bin	4.0584e-06	8520
bin	4.1296e-06	4183
bin	4.2008e-06	4298
bin	4.272e-06	8291
bin	4.3432e-06	8441
bin	4.4144e-06	4279
bin	4.4856e-06	4299
bin	4.5568e-06	4292
bin	4.628e-06	8491
bin	4.6992e-06	4373
bin	4.7704e-06	4360
bin	4.8416e-06	8581
bin	4.9128e-06	4334
bin	4.984e-06	4371
bin	5.0552e-06	4363
bin	5.1264e-06	8538
bin	5.1976e-06	4427
bin	5.2688e-06	4453
bin	5.34e-06	4500
bin	5.4112e-06	8719
bin	5.4824e-06	4650
bin	5.5536e-06	4568
bin	5.6248e-06	8744
bin	5.696e-06	4607
bin	5.7672e-06	4691
bin	5.8384e-06	4728
bin	5.9096e-06	8961
bin	5.9808e-06	4781
bin	6.052e-06	4840
bin	6.1232e-06	4699
bin	6.1944e-06	8849
bin	6.2656e-06	5028
bin	6.3368e-06	5007
bin	6.408e-06	8978
bin	6.4792e-06	4890
bin	6.5504e-06	4944
bin	6.6216e-06	4983
bin	6.6928e-06	9123
bin	6.764e-06	5029
bin	6.8352e-06	5164
bin	6.9064e-06	5282
bin	6.9776e-06	9362
bin	7.0488e-06	5414
bin	7.12e-06	5405
bin	7.1912e-06	9390
bin	7.2624e-06	5318
bin	7.3336e-06	5455
bin	7.4048e-06	5484
bin	7.476e-06	9464
bin	7.5472e-06	5352
bin	7.6184e-06	5420
bin	7.6896e-06	5389
bin	7.7608e-06	9434
bin	7.832e-06	5321
bin	7.9032e-06	5477
bin	7.9744e-06	9450
bin	8.0456e-06	5575
bin	8.1168e-06	5492
bin	8.188e-06	5573
bin	8.2592e-06	5559
bin	8.3304e-06	5496
bin	8.4016e-06	5727
bin	8.4728e-06	5591
bin	8.544e-06	9903
bin	8.6152e-06	5970
bin	8.6864e-06	5992
bin	8.7576e-06	9984
bin	8.8288e-06	6054
bin	8.9e-06	5993
bin	8.9712e-06	6014
bin	9.0424e-06	8191
bin	9.1136e-06	5942
bin	9.1848e-06	6355
bin	9.256e-06	6113
bin	9.3272e-06	10129
bin	9.3984e-06	6432
bin	9.4696e-06	6359
bin	9.5408e-06	6396
bin	9.612e-06	6292
bin	9.6832e-06	6237
bin	9.7544e-06	6590
bin	9.8256e-06	8632
bin	9.8968e-06	6325
bin	9.968e-06	6521
bin	1.00392e-05	6451
bin	1.01104e-05	10396
bin	1.01816e-05	6663
bin	1.02528e-05	6459
bin	1.0324e-05	8521
bin	1.03952e-05	6597
bin	1.04664e-05	6544
bin	1.05376e-05	6626
bin	1.06088e-05	6543
bin	1.068e-05	6483
bin	1.07512e-05	6784
bin	1.08224e-05	6610
bin	1.08936e-05	8693
bin	1.09648e-05	6801
bin	1.1036e-05	6748
bin	1.11072e-05	10811
bin	1.11784e-05	6820
bin	1.12496e-05	6759
bin	1.13208e-05	6676
bin	1.1392e-05	8728
bin	1.14632e-05	6655
bin	1.15344e-05	6728
bin	1.16056e-05	6822
bin	1.16768e-05	10899
bin	1.1748e-05	6856
bin	1.18192e-05	6904
bin	1.18904e-05	8716
bin	1.19616e-05	6729
bin	1.20328e-05	7022
bin	1.2104e-05	6759
bin	1.21752e-05	11154
bin	1.22464e-05	6855
bin	1.23176e-05	6911
bin	1.23888e-05	7040
bin	1.246e-05	9005
bin	1.25312e-05	6997
bin	1.26024e-05	7013
bin	1.26736e-05	11048
bin	1.27448e-05	7117
bin	1.2816e-05	7174
bin	1.28872e-05	7065
bin	1.29584e-05	8175
bin	1.30296e-05	7069
bin	1.31008e-05	7189
bin	1.3172e-05	6943
bin	1.32432e-05	8334
bin	1.33144e-05	7259
bin	1.33856e-05	7182
bin	1.34568e-05	7226
bin	1.3528e-05	7374
bin	1.35992e-05	7556
bin	1.36704e-05	7364
bin	1.37416e-05	7449
bin	1.38128e-05	7516
bin	1.3884e-05	7556
bin	1.39552e-05	7478
bin	1.40264e-05	7558
bin	1.40976e-05	7635
bin	1.41688e-05	7700
bin	1.424e-05	7528
bin	1.43112e-05	7829
bin	1.43824e-05	7826
bin	1.44536e-05	7896
bin	1.45248e-05	7763
bin	1.4596e-05	7705
bin	1.46672e-05	7885
bin	1.47384e-05	7788
bin	1.48096e-05	7752
bin	1.48808e-05	7869
bin	1.4952e-05	7887
bin	1.50232e-05	7883
bin	1.50944e-05	7769
bin	1.51656e-05	7894
bin	1.52368e-05	8043
bin	1.5308e-05	7784
bin	1.53792e-05	7775
bin	1.54504e-05	7653
bin	1.55216e-05	8048
bin	1.55928e-05	7999
bin	1.5664e-05	7921
bin	1.57352e-05	7979
bin	1.58064e-05	7929
bin	1.58776e-05	8209
bin	1.59488e-05	8105
bin	1.602e-05	8162
bin	1.60912e-05	7972
bin	1.61624e-05	8222
bin	1.62336e-05	8119
bin	1.63048e-05	8176
bin	1.6376e-05	7965
bin	1.64472e-05	8237
bin	1.65184e-05	8153
bin	1.65896e-05	8194
bin	1.66608e-05	8136
bin	1.6732e-05	8262
bin	1.68032e-05	8262
bin	1.68744e-05	8099
bin	1.69456e-05	8214
bin	1.70168e-05	8150
bin	1.7088e-05	8240
bin	1.71592e-05	8170
bin	1.72304e-05	8300
bin	1.73016e-05	8275
bin	1.73728e-05	8163
bin	1.7444e-05	8226
bin	1.75152e-05	8216
bin	1.75864e-05	8228
bin	1.76576e-05	8447
bin	1.77288e-05	8403
bin	1.78e-05	8261
bin	1.78712e-05	8656
bin	1.79424e-05	8290
bin	1.80136e-05	8464
bin	1.80848e-05	8315
bin	1.8156e-05	8426
bin	1.82272e-05	8546
bin	1.82984e-05	8563
bin	1.83696e-05	8515
bin	1.84408e-05	8602
bin	1.8512e-05	8513
bin	1.85832e-05	8297
bin	1.86544e-05	8396
bin	1.87256e-05	8356
bin	1.87968e-05	8409
bin	1.8868e-05	8379
bin	1.89392e-05	8203
bin	1.90104e-05	8490
bin	1.90816e-05	8334
bin	1.91528e-05	8321
bin	1.9224e-05	8222
bin	1.92952e-05	8439
bin	1.93664e-05	8343
bin	1.94376e-05	8194
bin	1.95088e-05	8316
bin	1.958e-05	8530
bin	1.96512e-05	8406
bin	1.97224e-05	8293
bin	1.97936e-05	8453
bin	1.98648e-05	8481
bin	1.9936e-05	8388
bin	2.00072e-05	8463
bin	2.00784e-05	8485
bin	2.01496e-05	8455
bin	2.02208e-05	8531
bin	2.0292e-05	8486
bin	2.03632e-05	8363
bin	2.04344e-05	8506
bin	2.05056e-05	8506
bin	2.05768e-05	8453
bin	2.0648e-05	8488
bin	2.07192e-05	8492
bin	2.07904e-05	8387
bin	2.08616e-05	8394
bin	2.09328e-05	8387
bin	2.1004e-05	8382
bin	2.10752e-05	8391
bin	2.11464e-05	8412
bin	2.12176e-05	8508
bin	2.12888e-05	8376
bin	2.136e-05	8401
bin	2.14312e-05	8546
bin	2.15024e-05	8404
bin	2.15736e-05	8400
bin	2.16448e-05	8560
bin	2.1716e-05	8436
bin	2.17872e-05	8548
bin	2.18584e-05	8443
bin	2.19296e-05	8534
bin	2.20008e-05	8731
bin	2.2072e-05	8561
bin	2.21432e-05	8637
bin	2.22144e-05	8643
bin	2.22856e-05	8746
bin	2.23568e-05	8465
bin	2.2428e-05	8663
bin	2.24992e-05	8655
bin	2.25704e-05	8662
bin	2.26416e-05	8576
bin	2.27128e-05	8643
bin	2.2784e-05	8503
bin	2.28552e-05	8572
bin	2.29264e-05	8696
bin	2.29976e-05	8476
bin	2.30688e-05	8580
bin	2.314e-05	8491
bin	2.32112e-05	8568
bin	2.32824e-05	8634
bin	2.33536e-05	8609
bin	2.34248e-05	8589
bin	2.3496e-05	8750
bin	2.35672e-05	8332
bin	2.36384e-05	8574
bin	2.37096e-05	8475
bin	2.37808e-05	8465
bin	2.3852e-05	8325
bin	2.39232e-05	8422
bin	2.39944e-05	8512
bin	2.40656e-05	8491
bin	2.41368e-05	8401
bin	2.4208e-05	8400
bin	2.42792e-05	8434
bin	2.43504e-05	8331
bin	2.44216e-05	8326
bin	2.44928e-05	8402
bin	2.4564e-05	8471
bin	2.46352e-05	8519
bin	2.47064e-05	8441
bin	2.47776e-05	8390
bin	2.48488e-05	8431
bin	2.492e-05	8390
bin	2.49912e-05	8448
bin	2.50624e-05	8466
bin	2.51336e-05	8413
bin	2.52048e-05	8378
bin	2.5276e-05	8465
bin	2.53472e-05	8474
bin	2.54184e-05	8275
bin	2.54896e-05	8497
bin	2.55608e-05	8514
bin	2.5632e-05	8421
bin	2.57032e-05	8347
bin	2.57744e-05	8348
bin	2.58456e-05	8346
bin	2.59168e-05	8337
bin	2.5988e-05	8476
bin	2.60592e-05	8404
bin	2.61304e-05	8379
bin	2.62016e-05	8491
bin	2.62728e-05	8533
bin	2.6344e-05	8169
bin	2.64152e-05	8429
bin	2.64864e-05	8291
bin	2.65576e-05	8405
bin	2.66288e-05	8371
bin	2.67e-05	8302
bin	2.67712e-05	8492
bin	2.68424e-05	8151
bin	2.69136e-05	8237
bin	2.69848e-05	8165
bin	2.7056e-05	8194
bin	2.71272e-05	8261
bin	2.71984e-05	8209
bin	2.72696e-05	8131
bin	2.73408e-05	8262
bin	2.7412e-05	8206
bin	2.74832e-05	8144
bin	2.75544e-05	8354
bin	2.76256e-05	8321
bin	2.76968e-05	8410
bin	2.7768e-05	8180
bin	2.78392e-05	8368
bin	2.79104e-05	8307
bin	2.79816e-05	8155
bin	2.80528e-05	8227
bin	2.8124e-05	8060
bin	2.81952e-05	8222
bin	2.82664e-05	8068
bin	2.83376e-05	8199
bin	2.84088e-05	8039
bin	2.848e-05	7938
bin	2.85512e-05	7854
bin	2.86224e-05	8064
bin	2.86936e-05	8057
bin	2.87648e-05	7842
bin	2.8836e-05	8023
bin	2.89072e-05	7800
bin	2.89784e-05	8077
bin	2.90496e-05	7818
bin	2.91208e-05	8008
bin	2.9192e-05	7812
bin	2.92632e-05	7835
bin	2.93344e-05	7865
bin	2.94056e-05	8170
bin	2.94768e-05	7756
bin	2.9548e-05	7889
bin	2.96192e-05	7927
bin	2.96904e-05	7969
bin	2.97616e-05	7961
bin	2.98328e-05	7770
bin	2.9904e-05	7913
bin	2.99752e-05	7777
bin	3.00464e-05	7694
bin	3.01176e-05	7595
bin	3.01888e-05	7746
bin	3.026e-05	7792
bin	3.03312e-05	7679
bin	3.04024e-05	7678
bin	3.04736e-05	7730
bin	3.05448e-05	7788
bin	3.0616e-05	7588
bin	3.06872e-05	7758
bin	3.07584e-05	7546
bin	3.08296e-05	7592
bin	3.09008e-05	7527
bin	3.0972e-05	7587
bin	3.10432e-05	7622
bin	3.11144e-05	7553
bin	3.11856e-05	7544
bin	3.12568e-05	7775
bin	3.1328e-05	7643
bin	3.13992e-05	7427
bin	3.14704e-05	7627
bin	3.15416e-05	7275
bin	3.16128e-05	7312
bin	3.1684e-05	7437
bin	3.17552e-05	7404
bin	3.18264e-05	7347
bin	3.18976e-05	7190
bin	3.19688e-05	7270
bin	3.204e-05	7393
bin	3.21112e-05	7196
bin	3.21824e-05	7197
bin	3.22536e-05	7321
bin	3.23248e-05	7042
bin	3.2396e-05	7202
bin	3.24672e-05	6929
bin	3.25384e-05	7274
bin	3.26096e-05	7216
bin	3.26808e-05	6974
bin	3.2752e-05	7067
bin	3.28232e-05	7118
bin	3.28944e-05	7122
bin	3.29656e-05	7014
bin	3.30368e-05	7003
bin	3.3108e-05	6871
bin	3.31792e-05	6880
bin	3.32504e-05	6864
bin	3.33216e-05	7007
bin	3.33928e-05	6880
bin	3.3464e-05	6818
bin	3.35352e-05	6896
bin	3.36064e-05	6995
bin	3.36776e-05	6978
bin	3.37488e-05	6674
bin	3.382e-05	6946
bin	3.38912e-05	6654
bin	3.39624e-05	6794
bin	3.40336e-05	6546
bin	3.41048e-05	6807
bin	3.4176e-05	6551
bin	3.42472e-05	6454
bin	3.43184e-05	6553
bin	3.43896e-05	6556
bin	3.44608e-05	6536
bin	3.4532e-05	6407
bin	3.46032e-05	6713
bin	3.46744e-05	6435
bin	3.47456e-05	6514
bin	3.48168e-05	6288
bin	3.4888e-05	6467
bin	3.49592e-05	6303
bin	3.50304e-05	6262
bin	3.51016e-05	6276
bin	3.51728e-05	6317
bin	3.5244e-05	6255
bin	3.53152e-05	6209
bin	3.53864e-05	6374
bin	3.54576e-05	6164
bin	3.55288e-05	6195
bin	3.56e-05	2563393
statistic Torus3d_bub.timer 	"Life Times"
field count 6291456
field mean 0.00017621370781579
field stddev 0.00010144420262763
field sum 1108.6407893199
field sqrsum 0.26010260351166
field min 5.39393807e-07
field max 0.000601613605126
bin	-INF	0
bin	0	4118
bin	8.544e-07	12474
bin	1.7088e-06	20867
bin	2.5632e-06	23207
bin	3.4176e-06	25585
bin	4.272e-06	23472
bin	5.1264e-06	28495
bin	5.9808e-06	20685
bin	6.8352e-06	22220
bin	7.6896e-06	21417
bin	8.544e-06	28255
bin	9.3984e-06	24857
bin	1.02528e-05	21570
bin	1.11072e-05	36343
bin	1.19616e-05	25882
bin	1.2816e-05	22579
bin	1.36704e-05	14273
bin	1.45248e-05	14902
bin	1.53792e-05	11157
bin	1.62336e-05	8935
bin	1.7088e-05	8842
bin	1.79424e-05	9580
bin	1.87968e-05	9537
bin	1.96512e-05	9566
bin	2.05056e-05	9628
bin	2.136e-05	9123
bin	2.22144e-05	8938
bin	2.30688e-05	8938
bin	2.39232e-05	8625
bin	2.47776e-05	9052
bin	2.5632e-05	9062
bin	2.64864e-05	8854
bin	2.73408e-05	9622
bin	2.81952e-05	9786
bin	2.90496e-05	9693
bin	2.9904e-05	9452
bin	3.07584e-05	9552
bin	3.16128e-05	9699
bin	3.24672e-05	9814
bin	3.33216e-05	9715
bin	3.4176e-05	10191
bin	3.50304e-05	10760
bin	3.58848e-05	10535
bin	3.67392e-05	11135
bin	3.75936e-05	11092
bin	3.8448e-05	11091
bin	3.93024e-05	10947
bin	4.01568e-05	10965
bin	4.10112e-05	11253
bin	4.18656e-05	11241
bin	4.272e-05	10891
bin	4.35744e-05	11567
bin	4.44288e-05	11350
bin	4.52832e-05	11346
bin	4.61376e-05	11663
bin	4.6992e-05	11611
bin	4.78464e-05	11764
bin	4.87008e-05	11928
bin	4.95552e-05	12122
bin	5.04096e-05	12556
bin	5.1264e-05	12425
bin	5.21184e-05	12481
bin	5.29728e-05	12714
bin	5.38272e-05	13043
bin	5.46816e-05	13233
bin	5.5536e-05	13244
bin	5.63904e-05	13608
bin	5.72448e-05	14127
bin	5.80992e-05	13874
bin	5.89536e-05	14141
bin	5.9808e-05	14233
bin	6.06624e-05	14365
bin	6.15168e-05	14128
bin	6.23712e-05	14013
bin	6.32256e-05	14111
bin	6.408e-05	13838
bin	6.49344e-05	13459
bin	6.57888e-05	13643
bin	6.66432e-05	13750
bin	6.74976e-05	13388
bin	6.8352e-05	13478
bin	6.92064e-05	13607
bin	7.00608e-05	13555
bin	7.09152e-05	13444
bin	7.17696e-05	13598
bin	7.2624e-05	13535
bin	7.34784e-05	13681
bin	7.43328e-05	13548
bin	7.51872e-05	13740
bin	7.60416e-05	13829
bin	7.6896e-05	13700
bin	7.77504e-05	13812
bin	7.86048e-05	13721
bin	7.94592e-05	13896
bin	8.03136e-05	13844
bin	8.1168e-05	14098
bin	8.20224e-05	14104
bin	8.28768e-05	14250
bin	8.37312e-05	14445
bin	8.45856e-05	14401
bin	8.544e-05	14631
bin	8.62944e-05	14608
bin	8.71488e-05	14664
bin	8.80032e-05	14984
bin	8.88576e-05	14887
bin	8.9712e-05	14895
bin	9.05664e-05	15090
bin	9.14208e-05	15231
bin	9.22752e-05	15291
bin	9.31296e-05	15454
bin	9.3984e-05	15437
bin	9.48384e-05	15456
bin	9.56928e-05	15340
bin	9.65472e-05	15572
bin	9.74016e-05	15820
bin	9.8256e-05	15641
bin	9.91104e-05	15719
bin	9.99648e-05	15858
bin	0.0001008192	15847
bin	0.0001016736	15772
bin	0.000102528	15708
bin	0.0001033824	15871
bin	0.0001042368	15963
bin	0.0001050912	15828
bin	0.0001059456	15970
bin	0.0001068	16059
bin	0.0001076544	16166
bin	0.0001085088	16220
bin	0.0001093632	16273
bin	0.0001102176	16262
bin	0.000111072	16207
bin	0.0001119264	16090
bin	0.0001127808	16323
bin	0.0001136352	16126
bin	0.0001144896	16489
bin	0.000115344	16358
bin	0.0001161984	16368
bin	0.0001170528	16502
bin	0.0001179072	16715
bin	0.0001187616	16591
bin	0.000119616	16659
bin	0.0001204704	16408
bin	0.0001213248	16708
bin	0.0001221792	16600
bin	0.0001230336	16451
bin	0.000123888	16840
bin	0.0001247424	16608
bin	0.0001255968	16538
bin	0.0001264512	16449
bin	0.0001273056	16654
bin	0.00012816	16903
bin	0.0001290144	16811
bin	0.0001298688	16939
bin	0.0001307232	16955
bin	0.0001315776	16740
bin	0.000132432	17369
bin	0.0001332864	17289
bin	0.0001341408	17471
bin	0.0001349952	17436
bin	0.0001358496	17294
bin	0.000136704	17458
bin	0.0001375584	17639
bin	0.0001384128	17652
bin	0.0001392672	17821
bin	0.0001401216	17941
bin	0.000140976	17951
bin	0.0001418304	18125
bin	0.0001426848	18115
bin	0.0001435392	18149
bin	0.0001443936	18171
bin	0.000145248	18439
bin	0.0001461024	18282
bin	0.0001469568	18227
bin	0.0001478112	18180
bin	0.0001486656	18089
bin	0.00014952	18172
bin	0.0001503744	18457
bin	0.0001512288	18253
bin	0.0001520832	18241
bin	0.0001529376	18086
bin	0.000153792	18152
bin	0.0001546464	18207
bin	0.0001555008	18524
bin	0.0001563552	18199
bin	0.0001572096	18322
bin	0.000158064	18206
bin	0.0001589184	18621
bin	0.0001597728	18451
bin	0.0001606272	18653
bin	0.0001614816	18544
bin	0.000162336	18630
bin	0.0001631904	18558
bin	0.0001640448	18582
bin	0.0001648992	18798
bin	0.0001657536	18811
bin	0.000166608	18719
bin	0.0001674624	18774
bin	0.0001683168	18738
bin	0.0001691712	18858
bin	0.0001700256	18923
bin	0.00017088	18571
bin	0.0001717344	18640
bin	0.0001725888	18572
bin	0.0001734432	18557
bin	0.0001742976	18524
bin	0.000175152	18640
bin	0.0001760064	18943
bin	0.0001768608	18887
bin	0.0001777152	18918
bin	0.0001785696	19001
bin	0.000179424	18712
bin	0.0001802784	18658
bin	0.0001811328	18733
bin	0.0001819872	18685
bin	0.0001828416	18594
bin	0.000183696	18410
bin	0.0001845504	18273
bin	0.0001854048	18628
bin	0.0001862592	18399
bin	0.0001871136	18603
bin	0.000187968	18286
bin	0.0001888224	18213
bin	0.0001896768	18400
bin	0.0001905312	18204
bin	0.0001913856	18250
bin	0.00019224	18095
bin	0.0001930944	18158
bin	0.0001939488	17931
bin	0.0001948032	18063
bin	0.0001956576	18306
bin	0.000196512	18193
bin	0.0001973664	18160
bin	0.0001982208	18238
bin	0.0001990752	18122
bin	0.0001999296	18048
bin	0.000200784	18086
bin	0.0002016384	18076
bin	0.0002024928	18404
bin	0.0002033472	18175
bin	0.0002042016	18040
bin	0.000205056	17919
bin	0.0002059104	17846
bin	0.0002067648	17722
bin	0.0002076192	17686
bin	0.0002084736	17811
bin	0.000209328	17921
bin	0.0002101824	17398
bin	0.0002110368	17752
bin	0.0002118912	17746
bin	0.0002127456	17888
bin	0.0002136	17669
bin	0.0002144544	17571
bin	0.0002153088	17663
bin	0.0002161632	17657
bin	0.0002170176	17729
bin	0.000217872	17895
bin	0.0002187264	17789
bin	0.0002195808	17686
bin	0.0002204352	17595
bin	0.0002212896	17661
bin	0.000222144	17726
bin	0.0002229984	17542
bin	0.0002238528	17488
bin	0.0002247072	17463
bin	0.0002255616	17554
bin	0.000226416	17162
bin	0.0002272704	17353
bin	0.0002281248	17147
bin	0.0002289792	16884
bin	0.0002298336	16939
bin	0.000230688	16609
bin	0.0002315424	16351
bin	0.0002323968	16613
bin	0.0002332512	16683
bin	0.0002341056	16378
bin	0.00023496	16397
bin	0.0002358144	16502
bin	0.0002366688	16161
bin	0.0002375232	16107
bin	0.0002383776	16103
bin	0.000239232	16081
bin	0.0002400864	15901
bin	0.0002409408	15996
bin	0.0002417952	16127
bin	0.0002426496	16275
bin	0.000243504	16151
bin	0.0002443584	15917
bin	0.0002452128	15895
bin	0.0002460672	15564
bin	0.0002469216	15710
bin	0.000247776	15742
bin	0.0002486304	15814
bin	0.0002494848	15716
bin	0.0002503392	15682
bin	0.0002511936	15897
bin	0.000252048	15768
bin	0.0002529024	15616
bin	0.0002537568	15343
bin	0.0002546112	15550
bin	0.0002554656	15373
bin	0.00025632	15467
bin	0.0002571744	15237
bin	0.0002580288	15206
bin	0.0002588832	15118
bin	0.0002597376	15144
bin	0.000260592	14983
bin	0.0002614464	15065
bin	0.0002623008	15139
bin	0.0002631552	14757
bin	0.0002640096	14635
bin	0.000264864	14624
bin	0.0002657184	14559
bin	0.0002665728	14704
bin	0.0002674272	14479
bin	0.0002682816	14487
bin	0.000269136	14160
bin	0.0002699904	14211
bin	0.0002708448	13982
bin	0.0002716992	14047
bin	0.0002725536	13720
bin	0.000273408	13464
bin	0.0002742624	13341
bin	0.0002751168	13277
bin	0.0002759712	13273
bin	0.0002768256	13178
bin	0.00027768	12874
bin	0.0002785344	12865
bin	0.0002793888	12731
bin	0.0002802432	12582
bin	0.0002810976	12268
bin	0.000281952	12335
bin	0.0002828064	12396
bin	0.0002836608	12330
bin	0.0002845152	12345
bin	0.0002853696	12404
bin	0.000286224	12280
bin	0.0002870784	12365
bin	0.0002879328	12295
bin	0.0002887872	12403
bin	0.0002896416	12268
bin	0.000290496	12298
bin	0.0002913504	12287
bin	0.0002922048	12091
bin	0.0002930592	12080
bin	0.0002939136	11930
bin	0.000294768	11888
bin	0.0002956224	11796
bin	0.0002964768	11825
bin	0.0002973312	11732
bin	0.0002981856	11642
bin	0.00029904	11630
bin	0.0002998944	11372
bin	0.0003007488	11200
bin	0.0003016032	11212
bin	0.0003024576	11025
bin	0.000303312	10748
bin	0.0003041664	10732
bin	0.0003050208	10451
bin	0.0003058752	10345
bin	0.0003067296	10276
bin	0.000307584	10378
bin	0.0003084384	10131
bin	0.0003092928	10044
bin	0.0003101472	10028
bin	0.0003110016	9848
bin	0.000311856	9836
bin	0.0003127104	9691
bin	0.0003135648	9720
bin	0.0003144192	9645
bin	0.0003152736	9561
bin	0.000316128	9434
bin	0.0003169824	9451
bin	0.0003178368	9244
bin	0.0003186912	8998
bin	0.0003195456	8901
bin	0.0003204	8822
bin	0.0003212544	8805
bin	0.0003221088	8782
bin	0.0003229632	8653
bin	0.0003238176	8587
bin	0.000324672	8652
bin	0.0003255264	8521
bin	0.0003263808	8384
bin	0.0003272352	8492
bin	0.0003280896	8487
bin	0.000328944	8404
bin	0.0003297984	8392
bin	0.0003306528	8352
bin	0.0003315072	8241
bin	0.0003323616	8161
bin	0.000333216	7915
bin	0.0003340704	7911
bin	0.0003349248	7930
bin	0.0003357792	7864
bin	0.0003366336	7752
bin	0.000337488	7626
bin	0.0003383424	7611
bin	0.0003391968	7523
bin	0.0003400512	7374
bin	0.0003409056	7235
bin	0.00034176	7129
bin	0.0003426144	6854
bin	0.0003434688	6760
bin	0.0003443232	6640
bin	0.0003451776	6489
bin	0.000346032	6366
bin	0.0003468864	6238
bin	0.0003477408	6121
bin	0.0003485952	6070
bin	0.0003494496	5964
bin	0.000350304	5933
bin	0.0003511584	5898
bin	0.0003520128	5834
bin	0.0003528672	5739
bin	0.0003537216	5626
bin	0.000354576	5729
bin	0.0003554304	5625
bin	0.0003562848	5650
bin	0.0003571392	5465
bin	0.0003579936	5382
bin	0.000358848	5278
bin	0.0003597024	5146
bin	0.0003605568	5063
bin	0.0003614112	4875
bin	0.0003622656	4695
bin	0.00036312	4628
bin	0.0003639744	4682
bin	0.0003648288	4552
bin	0.0003656832	4432
bin	0.0003665376	4289
bin	0.000367392	4292
bin	0.0003682464	4255
bin	0.0003691008	4221
bin	0.0003699552	4020
bin	0.0003708096	3977
bin	0.000371664	4002
bin	0.0003725184	3893
bin	0.0003733728	3756
bin	0.0003742272	3657
bin	0.0003750816	3571
bin	0.000375936	3447
bin	0.0003767904	3316
bin	0.0003776448	3340
bin	0.0003784992	3236
bin	0.0003793536	3110
bin	0.000380208	3046
bin	0.0003810624	2945
bin	0.0003819168	3019
bin	0.0003827712	2828
bin	0.0003836256	2822
bin	0.00038448	2892
bin	0.0003853344	2815
bin	0.0003861888	2774
bin	0.0003870432	2713
bin	0.0003878976	2688
bin	0.000388752	2538
bin	0.0003896064	2544
bin	0.0003904608	2530
bin	0.0003913152	2440
bin	0.0003921696	2485
bin	0.000393024	2434
bin	0.0003938784	2314
bin	0.0003947328	2146
bin	0.0003955872	2129
bin	0.0003964416	2100
bin	0.000397296	2120
bin	0.0003981504	2080
bin	0.0003990048	1954
bin	0.0003998592	1914
bin	0.0004007136	1851
bin	0.000401568	1802
bin	0.0004024224	1717
bin	0.0004032768	1635
bin	0.0004041312	1572
bin	0.0004049856	1514
bin	0.00040584	1539
bin	0.0004066944	1495
bin	0.0004075488	1507
bin	0.0004084032	1482
bin	0.0004092576	1475
bin	0.000410112	1425
bin	0.0004109664	1387
bin	0.0004118208	1390
bin	0.0004126752	1345
bin	0.0004135296	1370
bin	0.000414384	1375
bin	0.0004152384	1297
bin	0.0004160928	1339
bin	0.0004169472	1313
bin	0.0004178016	1263
bin	0.000418656	1181
bin	0.0004195104	1167
bin	0.0004203648	1100
bin	0.0004212192	1019
bin	0.0004220736	983
bin	0.000422928	938
bin	0.0004237824	924
bin	0.0004246368	858
bin	0.0004254912	796
bin	0.0004263456	774
bin	0.0004272	23275
