version 2
run Butterfly-111-20120709-13:03:29-24145
attr alg 3
attr buf 8
attr configname Butterfly
attr datetime 20120709-13:03:29
attr delta 0.8
attr experiment Butterfly
attr ext false
attr inifile altro.ini
attr iterationvars "$buf=8, $ext=false, $ofedge=1, $delta=0.8, $alg=3"
attr iterationvars2 "$buf=8, $ext=false, $ofedge=1, $delta=0.8, $alg=3, $repetition=0"
attr measurement "$buf=8, $ext=false, $ofedge=1, $delta=0.8, $alg=3"
attr network Torus3d_bub
attr ofedge 1
attr processid 24145
attr repetition 0
attr replication #0
attr resultdir altro-results
attr runnumber 111
attr seedset 111

scalar . 	alg 	3
scalar . 	buf 	8
scalar . 	delta 	0.8
scalar . 	ofedge 	1
scalar Torus3d_bub.timer 	#endTime 	0.001053757331893
scalar Torus3d_bub.timer 	#totalHops 	33435294
scalar Torus3d_bub.timer 	#totalPacks 	6291456
scalar Torus3d_bub.timer 	#totalDerouted 	4137950
scalar Torus3d_bub.timer 	#totalOutFlanked 	3936510
scalar Torus3d_bub.timer 	#totalCQRed 	201440
scalar Torus3d_bub.timer 	#LB 	0.000786432
scalar Torus3d_bub.timer 	#ratio 	0.74631224495229
statistic Torus3d_bub.timer 	"Hop Times"
field count 6291456
field mean 6.174035541265e-06
field stddev 6.1791439690705e-06
field sum 38.843672950305
field sqrsum 0.00048004142089508
field min 4.32466474e-07
field max 0.000183067332658
bin	-INF	0
bin	0	0
bin	7.12e-08	0
bin	1.424e-07	0
bin	2.136e-07	0
bin	2.848e-07	0
bin	3.56e-07	0
bin	4.272e-07	13816
bin	4.984e-07	23433
bin	5.696e-07	19525
bin	6.408e-07	27700
bin	7.12e-07	33748
bin	7.832e-07	23958
bin	8.544e-07	34566
bin	9.256e-07	51949
bin	9.968e-07	39985
bin	1.068e-06	35488
bin	1.1392e-06	63316
bin	1.2104e-06	54968
bin	1.2816e-06	45427
bin	1.3528e-06	47467
bin	1.424e-06	38303
bin	1.4952e-06	62235
bin	1.5664e-06	39167
bin	1.6376e-06	42742
bin	1.7088e-06	50652
bin	1.78e-06	62428
bin	1.8512e-06	52512
bin	1.9224e-06	68169
bin	1.9936e-06	62602
bin	2.0648e-06	67391
bin	2.136e-06	70614
bin	2.2072e-06	66294
bin	2.2784e-06	87315
bin	2.3496e-06	68481
bin	2.4208e-06	82514
bin	2.492e-06	80337
bin	2.5632e-06	84757
bin	2.6344e-06	80274
bin	2.7056e-06	81128
bin	2.7768e-06	87378
bin	2.848e-06	75565
bin	2.9192e-06	79444
bin	2.9904e-06	69177
bin	3.0616e-06	86212
bin	3.1328e-06	68738
bin	3.204e-06	74726
bin	3.2752e-06	72195
bin	3.3464e-06	67939
bin	3.4176e-06	66832
bin	3.4888e-06	64485
bin	3.56e-06	67576
bin	3.6312e-06	64208
bin	3.7024e-06	64829
bin	3.7736e-06	56738
bin	3.8448e-06	71266
bin	3.916e-06	54939
bin	3.9872e-06	55679
bin	4.0584e-06	59077
bin	4.1296e-06	57705
bin	4.2008e-06	55502
bin	4.272e-06	53305
bin	4.3432e-06	54692
bin	4.4144e-06	52540
bin	4.4856e-06	51425
bin	4.5568e-06	47317
bin	4.628e-06	55094
bin	4.6992e-06	45682
bin	4.7704e-06	45982
bin	4.8416e-06	48778
bin	4.9128e-06	48003
bin	4.984e-06	43702
bin	5.0552e-06	46268
bin	5.1264e-06	53143
bin	5.1976e-06	45240
bin	5.2688e-06	45378
bin	5.34e-06	36557
bin	5.4112e-06	50548
bin	5.4824e-06	38351
bin	5.5536e-06	35691
bin	5.6248e-06	44331
bin	5.696e-06	40540
bin	5.7672e-06	35310
bin	5.8384e-06	38075
bin	5.9096e-06	38063
bin	5.9808e-06	33890
bin	6.052e-06	33429
bin	6.1232e-06	28072
bin	6.1944e-06	36081
bin	6.2656e-06	26620
bin	6.3368e-06	25232
bin	6.408e-06	29289
bin	6.4792e-06	27414
bin	6.5504e-06	22623
bin	6.6216e-06	21877
bin	6.6928e-06	25782
bin	6.764e-06	23822
bin	6.8352e-06	20426
bin	6.9064e-06	17566
bin	6.9776e-06	26180
bin	7.0488e-06	16371
bin	7.12e-06	16172
bin	7.1912e-06	19349
bin	7.2624e-06	19206
bin	7.3336e-06	14479
bin	7.4048e-06	14642
bin	7.476e-06	19243
bin	7.5472e-06	17906
bin	7.6184e-06	15284
bin	7.6896e-06	13459
bin	7.7608e-06	23340
bin	7.832e-06	13670
bin	7.9032e-06	14502
bin	7.9744e-06	16975
bin	8.0456e-06	14134
bin	8.1168e-06	12839
bin	8.188e-06	13803
bin	8.2592e-06	17102
bin	8.3304e-06	16204
bin	8.4016e-06	14373
bin	8.4728e-06	11481
bin	8.544e-06	20724
bin	8.6152e-06	11479
bin	8.6864e-06	14794
bin	8.7576e-06	14211
bin	8.8288e-06	16311
bin	8.9e-06	9958
bin	8.9712e-06	12949
bin	9.0424e-06	16833
bin	9.1136e-06	12651
bin	9.1848e-06	12571
bin	9.256e-06	8039
bin	9.3272e-06	15430
bin	9.3984e-06	7914
bin	9.4696e-06	11868
bin	9.5408e-06	10264
bin	9.612e-06	13732
bin	9.6832e-06	7523
bin	9.7544e-06	9259
bin	9.8256e-06	12897
bin	9.8968e-06	11165
bin	9.968e-06	9519
bin	1.00392e-05	7108
bin	1.01104e-05	14518
bin	1.01816e-05	7379
bin	1.02528e-05	9151
bin	1.0324e-05	10114
bin	1.03952e-05	9446
bin	1.04664e-05	6927
bin	1.05376e-05	8850
bin	1.06088e-05	11360
bin	1.068e-05	8816
bin	1.07512e-05	8517
bin	1.08224e-05	6493
bin	1.08936e-05	14664
bin	1.09648e-05	6875
bin	1.1036e-05	8009
bin	1.11072e-05	9446
bin	1.11784e-05	10606
bin	1.12496e-05	5993
bin	1.13208e-05	8521
bin	1.1392e-05	10946
bin	1.14632e-05	10783
bin	1.15344e-05	7400
bin	1.16056e-05	6866
bin	1.16768e-05	12498
bin	1.1748e-05	7090
bin	1.18192e-05	7323
bin	1.18904e-05	10140
bin	1.19616e-05	14949
bin	1.20328e-05	7577
bin	1.2104e-05	8371
bin	1.21752e-05	12383
bin	1.22464e-05	8965
bin	1.23176e-05	8519
bin	1.23888e-05	6925
bin	1.246e-05	12814
bin	1.25312e-05	9095
bin	1.26024e-05	6372
bin	1.26736e-05	10303
bin	1.27448e-05	11851
bin	1.2816e-05	5273
bin	1.28872e-05	9131
bin	1.29584e-05	7557
bin	1.30296e-05	6636
bin	1.31008e-05	5640
bin	1.3172e-05	6611
bin	1.32432e-05	6876
bin	1.33144e-05	6251
bin	1.33856e-05	6126
bin	1.34568e-05	6852
bin	1.3528e-05	6663
bin	1.35992e-05	5571
bin	1.36704e-05	6039
bin	1.37416e-05	6653
bin	1.38128e-05	5921
bin	1.3884e-05	5270
bin	1.39552e-05	6141
bin	1.40264e-05	6345
bin	1.40976e-05	5859
bin	1.41688e-05	5929
bin	1.424e-05	6268
bin	1.43112e-05	5887
bin	1.43824e-05	5445
bin	1.44536e-05	5369
bin	1.45248e-05	6266
bin	1.4596e-05	5574
bin	1.46672e-05	5071
bin	1.47384e-05	5413
bin	1.48096e-05	5516
bin	1.48808e-05	5036
bin	1.4952e-05	5056
bin	1.50232e-05	5362
bin	1.50944e-05	4797
bin	1.51656e-05	4628
bin	1.52368e-05	4528
bin	1.5308e-05	4965
bin	1.53792e-05	4359
bin	1.54504e-05	4221
bin	1.55216e-05	4380
bin	1.55928e-05	4230
bin	1.5664e-05	3919
bin	1.57352e-05	3783
bin	1.58064e-05	4270
bin	1.58776e-05	3624
bin	1.59488e-05	3492
bin	1.602e-05	3326
bin	1.60912e-05	3852
bin	1.61624e-05	3351
bin	1.62336e-05	3310
bin	1.63048e-05	3398
bin	1.6376e-05	3359
bin	1.64472e-05	3270
bin	1.65184e-05	3105
bin	1.65896e-05	3479
bin	1.66608e-05	3003
bin	1.6732e-05	3062
bin	1.68032e-05	2994
bin	1.68744e-05	3268
bin	1.69456e-05	3166
bin	1.70168e-05	2982
bin	1.7088e-05	3134
bin	1.71592e-05	3045
bin	1.72304e-05	2972
bin	1.73016e-05	2742
bin	1.73728e-05	3115
bin	1.7444e-05	2744
bin	1.75152e-05	2907
bin	1.75864e-05	2889
bin	1.76576e-05	3088
bin	1.77288e-05	2992
bin	1.78e-05	2970
bin	1.78712e-05	2917
bin	1.79424e-05	2921
bin	1.80136e-05	2891
bin	1.80848e-05	2836
bin	1.8156e-05	2978
bin	1.82272e-05	2780
bin	1.82984e-05	2826
bin	1.83696e-05	2736
bin	1.84408e-05	2927
bin	1.8512e-05	2933
bin	1.85832e-05	2850
bin	1.86544e-05	2705
bin	1.87256e-05	2688
bin	1.87968e-05	2722
bin	1.8868e-05	2575
bin	1.89392e-05	2738
bin	1.90104e-05	2410
bin	1.90816e-05	2693
bin	1.91528e-05	2433
bin	1.9224e-05	2497
bin	1.92952e-05	2459
bin	1.93664e-05	2447
bin	1.94376e-05	2335
bin	1.95088e-05	2222
bin	1.958e-05	2410
bin	1.96512e-05	2195
bin	1.97224e-05	2257
bin	1.97936e-05	2061
bin	1.98648e-05	2208
bin	1.9936e-05	1937
bin	2.00072e-05	2038
bin	2.00784e-05	2013
bin	2.01496e-05	2044
bin	2.02208e-05	1920
bin	2.0292e-05	1769
bin	2.03632e-05	1938
bin	2.04344e-05	1728
bin	2.05056e-05	1798
bin	2.05768e-05	1759
bin	2.0648e-05	1897
bin	2.07192e-05	1630
bin	2.07904e-05	1704
bin	2.08616e-05	1757
bin	2.09328e-05	1742
bin	2.1004e-05	1646
bin	2.10752e-05	1588
bin	2.11464e-05	1782
bin	2.12176e-05	1573
bin	2.12888e-05	1671
bin	2.136e-05	1542
bin	2.14312e-05	1873
bin	2.15024e-05	1561
bin	2.15736e-05	1689
bin	2.16448e-05	1700
bin	2.1716e-05	1890
bin	2.17872e-05	1730
bin	2.18584e-05	1696
bin	2.19296e-05	1845
bin	2.20008e-05	1617
bin	2.2072e-05	1772
bin	2.21432e-05	1687
bin	2.22144e-05	1884
bin	2.22856e-05	1618
bin	2.23568e-05	1742
bin	2.2428e-05	1803
bin	2.24992e-05	2151
bin	2.25704e-05	1720
bin	2.26416e-05	1741
bin	2.27128e-05	1856
bin	2.2784e-05	1646
bin	2.28552e-05	1738
bin	2.29264e-05	1628
bin	2.29976e-05	1847
bin	2.30688e-05	1544
bin	2.314e-05	1707
bin	2.32112e-05	1619
bin	2.32824e-05	1821
bin	2.33536e-05	1551
bin	2.34248e-05	1498
bin	2.3496e-05	1540
bin	2.35672e-05	1376
bin	2.36384e-05	1467
bin	2.37096e-05	1331
bin	2.37808e-05	1408
bin	2.3852e-05	1270
bin	2.39232e-05	1309
bin	2.39944e-05	1218
bin	2.40656e-05	1342
bin	2.41368e-05	1201
bin	2.4208e-05	1112
bin	2.42792e-05	1207
bin	2.43504e-05	1098
bin	2.44216e-05	1267
bin	2.44928e-05	1153
bin	2.4564e-05	1197
bin	2.46352e-05	1126
bin	2.47064e-05	1168
bin	2.47776e-05	1188
bin	2.48488e-05	1208
bin	2.492e-05	1216
bin	2.49912e-05	1128
bin	2.50624e-05	1149
bin	2.51336e-05	1154
bin	2.52048e-05	1215
bin	2.5276e-05	1109
bin	2.53472e-05	1246
bin	2.54184e-05	1122
bin	2.54896e-05	1210
bin	2.55608e-05	1184
bin	2.5632e-05	1197
bin	2.57032e-05	1296
bin	2.57744e-05	1221
bin	2.58456e-05	1202
bin	2.59168e-05	1162
bin	2.5988e-05	1260
bin	2.60592e-05	1144
bin	2.61304e-05	1249
bin	2.62016e-05	1225
bin	2.62728e-05	1357
bin	2.6344e-05	1261
bin	2.64152e-05	1310
bin	2.64864e-05	1355
bin	2.65576e-05	1376
bin	2.66288e-05	1419
bin	2.67e-05	1376
bin	2.67712e-05	1434
bin	2.68424e-05	1483
bin	2.69136e-05	1493
bin	2.69848e-05	1375
bin	2.7056e-05	1534
bin	2.71272e-05	1463
bin	2.71984e-05	1486
bin	2.72696e-05	1512
bin	2.73408e-05	1475
bin	2.7412e-05	1493
bin	2.74832e-05	1534
bin	2.75544e-05	1534
bin	2.76256e-05	1451
bin	2.76968e-05	1523
bin	2.7768e-05	1358
bin	2.78392e-05	1439
bin	2.79104e-05	1382
bin	2.79816e-05	1400
bin	2.80528e-05	1389
bin	2.8124e-05	1331
bin	2.81952e-05	1362
bin	2.82664e-05	1332
bin	2.83376e-05	1383
bin	2.84088e-05	1288
bin	2.848e-05	1302
bin	2.85512e-05	1205
bin	2.86224e-05	1222
bin	2.86936e-05	1144
bin	2.87648e-05	1188
bin	2.8836e-05	1145
bin	2.89072e-05	1056
bin	2.89784e-05	1093
bin	2.90496e-05	1023
bin	2.91208e-05	1021
bin	2.9192e-05	927
bin	2.92632e-05	995
bin	2.93344e-05	832
bin	2.94056e-05	821
bin	2.94768e-05	828
bin	2.9548e-05	853
bin	2.96192e-05	770
bin	2.96904e-05	730
bin	2.97616e-05	759
bin	2.98328e-05	731
bin	2.9904e-05	663
bin	2.99752e-05	609
bin	3.00464e-05	723
bin	3.01176e-05	597
bin	3.01888e-05	630
bin	3.026e-05	573
bin	3.03312e-05	631
bin	3.04024e-05	569
bin	3.04736e-05	458
bin	3.05448e-05	570
bin	3.0616e-05	526
bin	3.06872e-05	498
bin	3.07584e-05	470
bin	3.08296e-05	544
bin	3.09008e-05	418
bin	3.0972e-05	438
bin	3.10432e-05	451
bin	3.11144e-05	501
bin	3.11856e-05	449
bin	3.12568e-05	378
bin	3.1328e-05	474
bin	3.13992e-05	430
bin	3.14704e-05	387
bin	3.15416e-05	379
bin	3.16128e-05	464
bin	3.1684e-05	383
bin	3.17552e-05	367
bin	3.18264e-05	322
bin	3.18976e-05	351
bin	3.19688e-05	320
bin	3.204e-05	290
bin	3.21112e-05	327
bin	3.21824e-05	287
bin	3.22536e-05	303
bin	3.23248e-05	279
bin	3.2396e-05	323
bin	3.24672e-05	271
bin	3.25384e-05	261
bin	3.26096e-05	257
bin	3.26808e-05	252
bin	3.2752e-05	256
bin	3.28232e-05	249
bin	3.28944e-05	269
bin	3.29656e-05	236
bin	3.30368e-05	258
bin	3.3108e-05	239
bin	3.31792e-05	242
bin	3.32504e-05	226
bin	3.33216e-05	217
bin	3.33928e-05	204
bin	3.3464e-05	226
bin	3.35352e-05	228
bin	3.36064e-05	190
bin	3.36776e-05	215
bin	3.37488e-05	208
bin	3.382e-05	215
bin	3.38912e-05	197
bin	3.39624e-05	236
bin	3.40336e-05	179
bin	3.41048e-05	199
bin	3.4176e-05	179
bin	3.42472e-05	195
bin	3.43184e-05	189
bin	3.43896e-05	174
bin	3.44608e-05	204
bin	3.4532e-05	171
bin	3.46032e-05	195
bin	3.46744e-05	170
bin	3.47456e-05	196
bin	3.48168e-05	159
bin	3.4888e-05	178
bin	3.49592e-05	173
bin	3.50304e-05	187
bin	3.51016e-05	164
bin	3.51728e-05	166
bin	3.5244e-05	167
bin	3.53152e-05	157
bin	3.53864e-05	181
bin	3.54576e-05	153
bin	3.55288e-05	177
bin	3.56e-05	26578
statistic Torus3d_bub.timer 	"Life Times"
field count 6291456
field mean 2.8294722137134e-05
field stddev 2.5298605035443e-05
field sum 178.01499935801
field sqrsum 0.0090635383026188
field min 5.2e-07
field max 0.000284388999319
bin	-INF	0
bin	0	18036
bin	8.544e-07	82034
bin	1.7088e-06	143996
bin	2.5632e-06	131855
bin	3.4176e-06	121060
bin	4.272e-06	114318
bin	5.1264e-06	141324
bin	5.9808e-06	142232
bin	6.8352e-06	145032
bin	7.6896e-06	152968
bin	8.544e-06	167394
bin	9.3984e-06	155302
bin	1.02528e-05	148491
bin	1.11072e-05	160815
bin	1.19616e-05	149055
bin	1.2816e-05	129105
bin	1.36704e-05	133857
bin	1.45248e-05	137596
bin	1.53792e-05	141295
bin	1.62336e-05	129294
bin	1.7088e-05	129892
bin	1.79424e-05	138784
bin	1.87968e-05	125967
bin	1.96512e-05	119475
bin	2.05056e-05	131256
bin	2.136e-05	117714
bin	2.22144e-05	116552
bin	2.30688e-05	115778
bin	2.39232e-05	117167
bin	2.47776e-05	107769
bin	2.5632e-05	96427
bin	2.64864e-05	91513
bin	2.73408e-05	88779
bin	2.81952e-05	83896
bin	2.90496e-05	78526
bin	2.9904e-05	77818
bin	3.07584e-05	74914
bin	3.16128e-05	61541
bin	3.24672e-05	57582
bin	3.33216e-05	56377
bin	3.4176e-05	53570
bin	3.50304e-05	47583
bin	3.58848e-05	42517
bin	3.67392e-05	37907
bin	3.75936e-05	34890
bin	3.8448e-05	32756
bin	3.93024e-05	30360
bin	4.01568e-05	28890
bin	4.10112e-05	26677
bin	4.18656e-05	27030
bin	4.272e-05	26279
bin	4.35744e-05	27155
bin	4.44288e-05	26733
bin	4.52832e-05	26466
bin	4.61376e-05	26945
bin	4.6992e-05	27436
bin	4.78464e-05	26783
bin	4.87008e-05	26180
bin	4.95552e-05	26187
bin	5.04096e-05	25479
bin	5.1264e-05	25618
bin	5.21184e-05	24802
bin	5.29728e-05	24892
bin	5.38272e-05	24152
bin	5.46816e-05	23697
bin	5.5536e-05	23202
bin	5.63904e-05	23204
bin	5.72448e-05	22348
bin	5.80992e-05	22079
bin	5.89536e-05	22029
bin	5.9808e-05	21412
bin	6.06624e-05	20848
bin	6.15168e-05	20579
bin	6.23712e-05	19714
bin	6.32256e-05	18379
bin	6.408e-05	17622
bin	6.49344e-05	17392
bin	6.57888e-05	16971
bin	6.66432e-05	16238
bin	6.74976e-05	15747
bin	6.8352e-05	15219
bin	6.92064e-05	14846
bin	7.00608e-05	14377
bin	7.09152e-05	14168
bin	7.17696e-05	13827
bin	7.2624e-05	13127
bin	7.34784e-05	12925
bin	7.43328e-05	13439
bin	7.51872e-05	14465
bin	7.60416e-05	14515
bin	7.6896e-05	15046
bin	7.77504e-05	15514
bin	7.86048e-05	15343
bin	7.94592e-05	15367
bin	8.03136e-05	15848
bin	8.1168e-05	16388
bin	8.20224e-05	15727
bin	8.28768e-05	15821
bin	8.37312e-05	15846
bin	8.45856e-05	16105
bin	8.544e-05	15501
bin	8.62944e-05	15251
bin	8.71488e-05	14967
bin	8.80032e-05	13719
bin	8.88576e-05	13172
bin	8.9712e-05	13057
bin	9.05664e-05	12223
bin	9.14208e-05	11346
bin	9.22752e-05	10441
bin	9.31296e-05	9545
bin	9.3984e-05	8583
bin	9.48384e-05	7658
bin	9.56928e-05	6921
bin	9.65472e-05	6352
bin	9.74016e-05	6083
bin	9.8256e-05	5957
bin	9.91104e-05	5749
bin	9.99648e-05	5649
bin	0.0001008192	5627
bin	0.0001016736	5506
bin	0.000102528	5597
bin	0.0001033824	5266
bin	0.0001042368	5304
bin	0.0001050912	5729
bin	0.0001059456	6057
bin	0.0001068	6202
bin	0.0001076544	6207
bin	0.0001085088	6292
bin	0.0001093632	6262
bin	0.0001102176	6243
bin	0.000111072	5861
bin	0.0001119264	5703
bin	0.0001127808	5445
bin	0.0001136352	5057
bin	0.0001144896	4628
bin	0.000115344	4182
bin	0.0001161984	3847
bin	0.0001170528	3235
bin	0.0001179072	2909
bin	0.0001187616	2536
bin	0.000119616	2164
bin	0.0001204704	1872
bin	0.0001213248	1527
bin	0.0001221792	1329
bin	0.0001230336	1070
bin	0.000123888	908
bin	0.0001247424	669
bin	0.0001255968	543
bin	0.0001264512	425
bin	0.0001273056	284
bin	0.00012816	231
bin	0.0001290144	175
bin	0.0001298688	159
bin	0.0001307232	148
bin	0.0001315776	149
bin	0.000132432	125
bin	0.0001332864	130
bin	0.0001341408	118
bin	0.0001349952	110
bin	0.0001358496	98
bin	0.000136704	112
bin	0.0001375584	125
bin	0.0001384128	115
bin	0.0001392672	110
bin	0.0001401216	102
bin	0.000140976	98
bin	0.0001418304	103
bin	0.0001426848	88
bin	0.0001435392	99
bin	0.0001443936	65
bin	0.000145248	89
bin	0.0001461024	78
bin	0.0001469568	66
bin	0.0001478112	86
bin	0.0001486656	86
bin	0.00014952	98
bin	0.0001503744	88
bin	0.0001512288	68
bin	0.0001520832	72
bin	0.0001529376	86
bin	0.000153792	103
bin	0.0001546464	69
bin	0.0001555008	60
bin	0.0001563552	57
bin	0.0001572096	48
bin	0.000158064	37
bin	0.0001589184	38
bin	0.0001597728	31
bin	0.0001606272	22
bin	0.0001614816	31
bin	0.000162336	32
bin	0.0001631904	23
bin	0.0001640448	43
bin	0.0001648992	32
bin	0.0001657536	36
bin	0.000166608	35
bin	0.0001674624	19
bin	0.0001683168	28
bin	0.0001691712	24
bin	0.0001700256	23
bin	0.00017088	37
bin	0.0001717344	22
bin	0.0001725888	35
bin	0.0001734432	19
bin	0.0001742976	27
bin	0.000175152	20
bin	0.0001760064	27
bin	0.0001768608	25
bin	0.0001777152	22
bin	0.0001785696	24
bin	0.000179424	21
bin	0.0001802784	24
bin	0.0001811328	21
bin	0.0001819872	22
bin	0.0001828416	17
bin	0.000183696	30
bin	0.0001845504	26
bin	0.0001854048	29
bin	0.0001862592	30
bin	0.0001871136	27
bin	0.000187968	26
bin	0.0001888224	13
bin	0.0001896768	21
bin	0.0001905312	14
bin	0.0001913856	26
bin	0.00019224	18
bin	0.0001930944	21
bin	0.0001939488	18
bin	0.0001948032	28
bin	0.0001956576	26
bin	0.000196512	21
bin	0.0001973664	18
bin	0.0001982208	32
bin	0.0001990752	22
bin	0.0001999296	23
bin	0.000200784	26
bin	0.0002016384	23
bin	0.0002024928	22
bin	0.0002033472	19
bin	0.0002042016	17
bin	0.000205056	19
bin	0.0002059104	9
bin	0.0002067648	17
bin	0.0002076192	18
bin	0.0002084736	7
bin	0.000209328	9
bin	0.0002101824	14
bin	0.0002110368	18
bin	0.0002118912	19
bin	0.0002127456	10
bin	0.0002136	6
bin	0.0002144544	6
bin	0.0002153088	7
bin	0.0002161632	6
bin	0.0002170176	10
bin	0.000217872	8
bin	0.0002187264	6
bin	0.0002195808	9
bin	0.0002204352	4
bin	0.0002212896	6
bin	0.000222144	11
bin	0.0002229984	4
bin	0.0002238528	6
bin	0.0002247072	4
bin	0.0002255616	6
bin	0.000226416	9
bin	0.0002272704	7
bin	0.0002281248	5
bin	0.0002289792	7
bin	0.0002298336	3
bin	0.000230688	3
bin	0.0002315424	3
bin	0.0002323968	6
bin	0.0002332512	6
bin	0.0002341056	6
bin	0.00023496	9
bin	0.0002358144	7
bin	0.0002366688	4
bin	0.0002375232	1
bin	0.0002383776	2
bin	0.000239232	5
bin	0.0002400864	1
bin	0.0002409408	1
bin	0.0002417952	2
bin	0.0002426496	1
bin	0.000243504	0
bin	0.0002443584	0
bin	0.0002452128	0
bin	0.0002460672	1
bin	0.0002469216	1
bin	0.000247776	2
bin	0.0002486304	1
bin	0.0002494848	1
bin	0.0002503392	0
bin	0.0002511936	0
bin	0.000252048	1
bin	0.0002529024	0
bin	0.0002537568	0
bin	0.0002546112	0
bin	0.0002554656	0
bin	0.00025632	0
bin	0.0002571744	0
bin	0.0002580288	0
bin	0.0002588832	0
bin	0.0002597376	0
bin	0.000260592	0
bin	0.0002614464	0
bin	0.0002623008	0
bin	0.0002631552	0
bin	0.0002640096	0
bin	0.000264864	0
bin	0.0002657184	0
bin	0.0002665728	0
bin	0.0002674272	0
bin	0.0002682816	0
bin	0.000269136	0
bin	0.0002699904	0
bin	0.0002708448	0
bin	0.0002716992	0
bin	0.0002725536	0
bin	0.000273408	0
bin	0.0002742624	0
bin	0.0002751168	0
bin	0.0002759712	0
bin	0.0002768256	0
bin	0.00027768	0
bin	0.0002785344	2
bin	0.0002793888	1
bin	0.0002802432	1
bin	0.0002810976	1
bin	0.000281952	0
bin	0.0002828064	1
bin	0.0002836608	2
bin	0.0002845152	0
bin	0.0002853696	0
bin	0.000286224	0
bin	0.0002870784	0
bin	0.0002879328	0
bin	0.0002887872	0
bin	0.0002896416	0
bin	0.000290496	0
bin	0.0002913504	0
bin	0.0002922048	0
bin	0.0002930592	0
bin	0.0002939136	0
bin	0.000294768	0
bin	0.0002956224	0
bin	0.0002964768	0
bin	0.0002973312	0
bin	0.0002981856	0
bin	0.00029904	0
bin	0.0002998944	0
bin	0.0003007488	0
bin	0.0003016032	0
bin	0.0003024576	0
bin	0.000303312	0
bin	0.0003041664	0
bin	0.0003050208	0
bin	0.0003058752	0
bin	0.0003067296	0
bin	0.000307584	0
bin	0.0003084384	0
bin	0.0003092928	0
bin	0.0003101472	0
bin	0.0003110016	0
bin	0.000311856	0
bin	0.0003127104	0
bin	0.0003135648	0
bin	0.0003144192	0
bin	0.0003152736	0
bin	0.000316128	0
bin	0.0003169824	0
bin	0.0003178368	0
bin	0.0003186912	0
bin	0.0003195456	0
bin	0.0003204	0
bin	0.0003212544	0
bin	0.0003221088	0
bin	0.0003229632	0
bin	0.0003238176	0
bin	0.000324672	0
bin	0.0003255264	0
bin	0.0003263808	0
bin	0.0003272352	0
bin	0.0003280896	0
bin	0.000328944	0
bin	0.0003297984	0
bin	0.0003306528	0
bin	0.0003315072	0
bin	0.0003323616	0
bin	0.000333216	0
bin	0.0003340704	0
bin	0.0003349248	0
bin	0.0003357792	0
bin	0.0003366336	0
bin	0.000337488	0
bin	0.0003383424	0
bin	0.0003391968	0
bin	0.0003400512	0
bin	0.0003409056	0
bin	0.00034176	0
bin	0.0003426144	0
bin	0.0003434688	0
bin	0.0003443232	0
bin	0.0003451776	0
bin	0.000346032	0
bin	0.0003468864	0
bin	0.0003477408	0
bin	0.0003485952	0
bin	0.0003494496	0
bin	0.000350304	0
bin	0.0003511584	0
bin	0.0003520128	0
bin	0.0003528672	0
bin	0.0003537216	0
bin	0.000354576	0
bin	0.0003554304	0
bin	0.0003562848	0
bin	0.0003571392	0
bin	0.0003579936	0
bin	0.000358848	0
bin	0.0003597024	0
bin	0.0003605568	0
bin	0.0003614112	0
bin	0.0003622656	0
bin	0.00036312	0
bin	0.0003639744	0
bin	0.0003648288	0
bin	0.0003656832	0
bin	0.0003665376	0
bin	0.000367392	0
bin	0.0003682464	0
bin	0.0003691008	0
bin	0.0003699552	0
bin	0.0003708096	0
bin	0.000371664	0
bin	0.0003725184	0
bin	0.0003733728	0
bin	0.0003742272	0
bin	0.0003750816	0
bin	0.000375936	0
bin	0.0003767904	0
bin	0.0003776448	0
bin	0.0003784992	0
bin	0.0003793536	0
bin	0.000380208	0
bin	0.0003810624	0
bin	0.0003819168	0
bin	0.0003827712	0
bin	0.0003836256	0
bin	0.00038448	0
bin	0.0003853344	0
bin	0.0003861888	0
bin	0.0003870432	0
bin	0.0003878976	0
bin	0.000388752	0
bin	0.0003896064	0
bin	0.0003904608	0
bin	0.0003913152	0
bin	0.0003921696	0
bin	0.000393024	0
bin	0.0003938784	0
bin	0.0003947328	0
bin	0.0003955872	0
bin	0.0003964416	0
bin	0.000397296	0
bin	0.0003981504	0
bin	0.0003990048	0
bin	0.0003998592	0
bin	0.0004007136	0
bin	0.000401568	0
bin	0.0004024224	0
bin	0.0004032768	0
bin	0.0004041312	0
bin	0.0004049856	0
bin	0.00040584	0
bin	0.0004066944	0
bin	0.0004075488	0
bin	0.0004084032	0
bin	0.0004092576	0
bin	0.000410112	0
bin	0.0004109664	0
bin	0.0004118208	0
bin	0.0004126752	0
bin	0.0004135296	0
bin	0.000414384	0
bin	0.0004152384	0
bin	0.0004160928	0
bin	0.0004169472	0
bin	0.0004178016	0
bin	0.000418656	0
bin	0.0004195104	0
bin	0.0004203648	0
bin	0.0004212192	0
bin	0.0004220736	0
bin	0.000422928	0
bin	0.0004237824	0
bin	0.0004246368	0
bin	0.0004254912	0
bin	0.0004263456	0
bin	0.0004272	0
