version 2
run Butterfly-43-20120709-10:43:08-22782
attr alg 3
attr buf 8
attr configname Butterfly
attr datetime 20120709-10:43:08
attr delta 2.2
attr experiment Butterfly
attr ext true
attr inifile altro.ini
attr iterationvars "$buf=8, $ext=true, $ofedge=1, $delta=2.2, $alg=3"
attr iterationvars2 "$buf=8, $ext=true, $ofedge=1, $delta=2.2, $alg=3, $repetition=0"
attr measurement "$buf=8, $ext=true, $ofedge=1, $delta=2.2, $alg=3"
attr network Torus3d_bub
attr ofedge 1
attr processid 22782
attr repetition 0
attr replication #0
attr resultdir altro-results
attr runnumber 43
attr seedset 43

scalar . 	alg 	3
scalar . 	buf 	8
scalar . 	delta 	2.2
scalar . 	ofedge 	1
scalar Torus3d_bub.timer 	#endTime 	0.000825861665399
scalar Torus3d_bub.timer 	#totalHops 	35242273
scalar Torus3d_bub.timer 	#totalPacks 	6291456
scalar Torus3d_bub.timer 	#totalDerouted 	4193827
scalar Torus3d_bub.timer 	#totalOutFlanked 	3921568
scalar Torus3d_bub.timer 	#totalCQRed 	272259
scalar Torus3d_bub.timer 	#LB 	0.000786432
scalar Torus3d_bub.timer 	#ratio 	0.95225633171876
statistic Torus3d_bub.timer 	"Hop Times"
field count 6291456
field mean 4.3613489052699e-05
field stddev 5.0276693265061e-05
field sum 274.39234738154
field sqrsum 0.027870407129791
field min 4.57393898e-07
field max 0.000502267120228
bin	-INF	0
bin	0	0
bin	7.12e-08	0
bin	1.424e-07	0
bin	2.136e-07	0
bin	2.848e-07	0
bin	3.56e-07	0
bin	4.272e-07	4
bin	4.984e-07	22
bin	5.696e-07	29
bin	6.408e-07	43
bin	7.12e-07	5183
bin	7.832e-07	98
bin	8.544e-07	1161
bin	9.256e-07	5287
bin	9.968e-07	6354
bin	1.068e-06	2901
bin	1.1392e-06	5155
bin	1.2104e-06	6146
bin	1.2816e-06	8211
bin	1.3528e-06	864
bin	1.424e-06	7241
bin	1.4952e-06	10246
bin	1.5664e-06	6180
bin	1.6376e-06	5716
bin	1.7088e-06	10316
bin	1.78e-06	8081
bin	1.8512e-06	7439
bin	1.9224e-06	8610
bin	1.9936e-06	10825
bin	2.0648e-06	9134
bin	2.136e-06	6712
bin	2.2072e-06	9237
bin	2.2784e-06	15556
bin	2.3496e-06	9029
bin	2.4208e-06	9833
bin	2.492e-06	12418
bin	2.5632e-06	8002
bin	2.6344e-06	7242
bin	2.7056e-06	9424
bin	2.7768e-06	11387
bin	2.848e-06	9824
bin	2.9192e-06	8137
bin	2.9904e-06	7375
bin	3.0616e-06	11622
bin	3.1328e-06	9167
bin	3.204e-06	10462
bin	3.2752e-06	13605
bin	3.3464e-06	6888
bin	3.4176e-06	6046
bin	3.4888e-06	10194
bin	3.56e-06	9689
bin	3.6312e-06	5903
bin	3.7024e-06	7609
bin	3.7736e-06	9440
bin	3.8448e-06	10697
bin	3.916e-06	8628
bin	3.9872e-06	4409
bin	4.0584e-06	8623
bin	4.1296e-06	4293
bin	4.2008e-06	4449
bin	4.272e-06	8596
bin	4.3432e-06	8548
bin	4.4144e-06	4508
bin	4.4856e-06	4413
bin	4.5568e-06	4341
bin	4.628e-06	8552
bin	4.6992e-06	4473
bin	4.7704e-06	4491
bin	4.8416e-06	8568
bin	4.9128e-06	4337
bin	4.984e-06	4396
bin	5.0552e-06	4455
bin	5.1264e-06	8675
bin	5.1976e-06	4677
bin	5.2688e-06	4716
bin	5.34e-06	4682
bin	5.4112e-06	8755
bin	5.4824e-06	4764
bin	5.5536e-06	4646
bin	5.6248e-06	8872
bin	5.696e-06	4604
bin	5.7672e-06	4712
bin	5.8384e-06	4775
bin	5.9096e-06	9019
bin	5.9808e-06	4937
bin	6.052e-06	4895
bin	6.1232e-06	4703
bin	6.1944e-06	8939
bin	6.2656e-06	4852
bin	6.3368e-06	4885
bin	6.408e-06	9021
bin	6.4792e-06	4963
bin	6.5504e-06	4972
bin	6.6216e-06	5073
bin	6.6928e-06	9240
bin	6.764e-06	5267
bin	6.8352e-06	5240
bin	6.9064e-06	5115
bin	6.9776e-06	9327
bin	7.0488e-06	5457
bin	7.12e-06	5422
bin	7.1912e-06	9671
bin	7.2624e-06	5504
bin	7.3336e-06	5608
bin	7.4048e-06	5551
bin	7.476e-06	9788
bin	7.5472e-06	5510
bin	7.6184e-06	5558
bin	7.6896e-06	5504
bin	7.7608e-06	9680
bin	7.832e-06	5715
bin	7.9032e-06	5765
bin	7.9744e-06	9707
bin	8.0456e-06	5875
bin	8.1168e-06	5816
bin	8.188e-06	5740
bin	8.2592e-06	5839
bin	8.3304e-06	5809
bin	8.4016e-06	5847
bin	8.4728e-06	6022
bin	8.544e-06	10069
bin	8.6152e-06	6185
bin	8.6864e-06	6199
bin	8.7576e-06	10286
bin	8.8288e-06	6131
bin	8.9e-06	6194
bin	8.9712e-06	6293
bin	9.0424e-06	8221
bin	9.1136e-06	6211
bin	9.1848e-06	6384
bin	9.256e-06	6266
bin	9.3272e-06	10494
bin	9.3984e-06	6596
bin	9.4696e-06	6575
bin	9.5408e-06	6494
bin	9.612e-06	6634
bin	9.6832e-06	6598
bin	9.7544e-06	6650
bin	9.8256e-06	8661
bin	9.8968e-06	6680
bin	9.968e-06	6867
bin	1.00392e-05	6644
bin	1.01104e-05	10794
bin	1.01816e-05	6673
bin	1.02528e-05	6857
bin	1.0324e-05	8851
bin	1.03952e-05	6863
bin	1.04664e-05	6897
bin	1.05376e-05	6723
bin	1.06088e-05	6923
bin	1.068e-05	6799
bin	1.07512e-05	6981
bin	1.08224e-05	6836
bin	1.08936e-05	8955
bin	1.09648e-05	6973
bin	1.1036e-05	6975
bin	1.11072e-05	10914
bin	1.11784e-05	7063
bin	1.12496e-05	6969
bin	1.13208e-05	6894
bin	1.1392e-05	9119
bin	1.14632e-05	6935
bin	1.15344e-05	6983
bin	1.16056e-05	6950
bin	1.16768e-05	11068
bin	1.1748e-05	6952
bin	1.18192e-05	7023
bin	1.18904e-05	8865
bin	1.19616e-05	7082
bin	1.20328e-05	7262
bin	1.2104e-05	7102
bin	1.21752e-05	11303
bin	1.22464e-05	7232
bin	1.23176e-05	7238
bin	1.23888e-05	7279
bin	1.246e-05	9225
bin	1.25312e-05	7272
bin	1.26024e-05	7373
bin	1.26736e-05	11421
bin	1.27448e-05	7369
bin	1.2816e-05	7482
bin	1.28872e-05	7439
bin	1.29584e-05	8519
bin	1.30296e-05	7252
bin	1.31008e-05	7397
bin	1.3172e-05	7456
bin	1.32432e-05	8494
bin	1.33144e-05	7513
bin	1.33856e-05	7316
bin	1.34568e-05	7445
bin	1.3528e-05	7742
bin	1.35992e-05	7681
bin	1.36704e-05	7512
bin	1.37416e-05	7641
bin	1.38128e-05	7680
bin	1.3884e-05	7655
bin	1.39552e-05	7651
bin	1.40264e-05	7829
bin	1.40976e-05	7958
bin	1.41688e-05	7920
bin	1.424e-05	7788
bin	1.43112e-05	8049
bin	1.43824e-05	8009
bin	1.44536e-05	8019
bin	1.45248e-05	8094
bin	1.4596e-05	8008
bin	1.46672e-05	8158
bin	1.47384e-05	7991
bin	1.48096e-05	7899
bin	1.48808e-05	8080
bin	1.4952e-05	8221
bin	1.50232e-05	7992
bin	1.50944e-05	8213
bin	1.51656e-05	8263
bin	1.52368e-05	8484
bin	1.5308e-05	8277
bin	1.53792e-05	8214
bin	1.54504e-05	8194
bin	1.55216e-05	8209
bin	1.55928e-05	8228
bin	1.5664e-05	8235
bin	1.57352e-05	8290
bin	1.58064e-05	8217
bin	1.58776e-05	8354
bin	1.59488e-05	8474
bin	1.602e-05	8290
bin	1.60912e-05	8316
bin	1.61624e-05	8354
bin	1.62336e-05	8326
bin	1.63048e-05	8386
bin	1.6376e-05	8253
bin	1.64472e-05	8468
bin	1.65184e-05	8362
bin	1.65896e-05	8320
bin	1.66608e-05	8350
bin	1.6732e-05	8622
bin	1.68032e-05	8536
bin	1.68744e-05	8494
bin	1.69456e-05	8371
bin	1.70168e-05	8362
bin	1.7088e-05	8493
bin	1.71592e-05	8335
bin	1.72304e-05	8444
bin	1.73016e-05	8455
bin	1.73728e-05	8401
bin	1.7444e-05	8479
bin	1.75152e-05	8547
bin	1.75864e-05	8586
bin	1.76576e-05	8447
bin	1.77288e-05	8563
bin	1.78e-05	8554
bin	1.78712e-05	8546
bin	1.79424e-05	8571
bin	1.80136e-05	8784
bin	1.80848e-05	8544
bin	1.8156e-05	8671
bin	1.82272e-05	8608
bin	1.82984e-05	8647
bin	1.83696e-05	8562
bin	1.84408e-05	8665
bin	1.8512e-05	8687
bin	1.85832e-05	8720
bin	1.86544e-05	8816
bin	1.87256e-05	8801
bin	1.87968e-05	8727
bin	1.8868e-05	8694
bin	1.89392e-05	8638
bin	1.90104e-05	8657
bin	1.90816e-05	8663
bin	1.91528e-05	8610
bin	1.9224e-05	8523
bin	1.92952e-05	8694
bin	1.93664e-05	8612
bin	1.94376e-05	8743
bin	1.95088e-05	8761
bin	1.958e-05	8828
bin	1.96512e-05	8682
bin	1.97224e-05	8761
bin	1.97936e-05	8660
bin	1.98648e-05	8855
bin	1.9936e-05	8731
bin	2.00072e-05	8548
bin	2.00784e-05	8666
bin	2.01496e-05	8796
bin	2.02208e-05	8752
bin	2.0292e-05	8636
bin	2.03632e-05	8825
bin	2.04344e-05	8764
bin	2.05056e-05	8688
bin	2.05768e-05	8682
bin	2.0648e-05	8694
bin	2.07192e-05	8561
bin	2.07904e-05	8673
bin	2.08616e-05	8693
bin	2.09328e-05	8766
bin	2.1004e-05	8853
bin	2.10752e-05	8781
bin	2.11464e-05	8677
bin	2.12176e-05	8636
bin	2.12888e-05	8835
bin	2.136e-05	8753
bin	2.14312e-05	8702
bin	2.15024e-05	8565
bin	2.15736e-05	8727
bin	2.16448e-05	8684
bin	2.1716e-05	8618
bin	2.17872e-05	8906
bin	2.18584e-05	8754
bin	2.19296e-05	8599
bin	2.20008e-05	8738
bin	2.2072e-05	8764
bin	2.21432e-05	8739
bin	2.22144e-05	8680
bin	2.22856e-05	8692
bin	2.23568e-05	8679
bin	2.2428e-05	8597
bin	2.24992e-05	8701
bin	2.25704e-05	8629
bin	2.26416e-05	8609
bin	2.27128e-05	8614
bin	2.2784e-05	8701
bin	2.28552e-05	8486
bin	2.29264e-05	8612
bin	2.29976e-05	8681
bin	2.30688e-05	8616
bin	2.314e-05	8654
bin	2.32112e-05	8694
bin	2.32824e-05	8712
bin	2.33536e-05	8589
bin	2.34248e-05	8563
bin	2.3496e-05	8503
bin	2.35672e-05	8567
bin	2.36384e-05	8779
bin	2.37096e-05	8586
bin	2.37808e-05	8500
bin	2.3852e-05	8543
bin	2.39232e-05	8646
bin	2.39944e-05	8581
bin	2.40656e-05	8486
bin	2.41368e-05	8483
bin	2.4208e-05	8520
bin	2.42792e-05	8493
bin	2.43504e-05	8570
bin	2.44216e-05	8483
bin	2.44928e-05	8597
bin	2.4564e-05	8448
bin	2.46352e-05	8571
bin	2.47064e-05	8581
bin	2.47776e-05	8567
bin	2.48488e-05	8384
bin	2.492e-05	8502
bin	2.49912e-05	8552
bin	2.50624e-05	8584
bin	2.51336e-05	8553
bin	2.52048e-05	8468
bin	2.5276e-05	8682
bin	2.53472e-05	8506
bin	2.54184e-05	8482
bin	2.54896e-05	8623
bin	2.55608e-05	8481
bin	2.5632e-05	8359
bin	2.57032e-05	8426
bin	2.57744e-05	8618
bin	2.58456e-05	8690
bin	2.59168e-05	8426
bin	2.5988e-05	8450
bin	2.60592e-05	8360
bin	2.61304e-05	8340
bin	2.62016e-05	8251
bin	2.62728e-05	8393
bin	2.6344e-05	8507
bin	2.64152e-05	8441
bin	2.64864e-05	8403
bin	2.65576e-05	8519
bin	2.66288e-05	8381
bin	2.67e-05	8577
bin	2.67712e-05	8291
bin	2.68424e-05	8354
bin	2.69136e-05	8446
bin	2.69848e-05	8326
bin	2.7056e-05	8409
bin	2.71272e-05	8306
bin	2.71984e-05	8287
bin	2.72696e-05	8379
bin	2.73408e-05	8333
bin	2.7412e-05	8398
bin	2.74832e-05	8282
bin	2.75544e-05	8371
bin	2.76256e-05	8288
bin	2.76968e-05	8393
bin	2.7768e-05	8056
bin	2.78392e-05	8191
bin	2.79104e-05	8126
bin	2.79816e-05	8153
bin	2.80528e-05	8054
bin	2.8124e-05	8160
bin	2.81952e-05	8120
bin	2.82664e-05	8223
bin	2.83376e-05	8170
bin	2.84088e-05	8008
bin	2.848e-05	8132
bin	2.85512e-05	8062
bin	2.86224e-05	8082
bin	2.86936e-05	7931
bin	2.87648e-05	7902
bin	2.8836e-05	8004
bin	2.89072e-05	7902
bin	2.89784e-05	8027
bin	2.90496e-05	7801
bin	2.91208e-05	8009
bin	2.9192e-05	7918
bin	2.92632e-05	7851
bin	2.93344e-05	7804
bin	2.94056e-05	8003
bin	2.94768e-05	7861
bin	2.9548e-05	7877
bin	2.96192e-05	7840
bin	2.96904e-05	7933
bin	2.97616e-05	7845
bin	2.98328e-05	7693
bin	2.9904e-05	7932
bin	2.99752e-05	7853
bin	3.00464e-05	8025
bin	3.01176e-05	7802
bin	3.01888e-05	8028
bin	3.026e-05	7937
bin	3.03312e-05	7850
bin	3.04024e-05	7881
bin	3.04736e-05	7976
bin	3.05448e-05	7839
bin	3.0616e-05	7508
bin	3.06872e-05	7783
bin	3.07584e-05	7626
bin	3.08296e-05	7731
bin	3.09008e-05	7547
bin	3.0972e-05	7692
bin	3.10432e-05	7553
bin	3.11144e-05	7480
bin	3.11856e-05	7635
bin	3.12568e-05	7674
bin	3.1328e-05	7619
bin	3.13992e-05	7457
bin	3.14704e-05	7614
bin	3.15416e-05	7372
bin	3.16128e-05	7580
bin	3.1684e-05	7406
bin	3.17552e-05	7502
bin	3.18264e-05	7351
bin	3.18976e-05	7315
bin	3.19688e-05	7407
bin	3.204e-05	7435
bin	3.21112e-05	7347
bin	3.21824e-05	7243
bin	3.22536e-05	7393
bin	3.23248e-05	7187
bin	3.2396e-05	7309
bin	3.24672e-05	7046
bin	3.25384e-05	7189
bin	3.26096e-05	7173
bin	3.26808e-05	7021
bin	3.2752e-05	7082
bin	3.28232e-05	7010
bin	3.28944e-05	7193
bin	3.29656e-05	7062
bin	3.30368e-05	7180
bin	3.3108e-05	6784
bin	3.31792e-05	7043
bin	3.32504e-05	6857
bin	3.33216e-05	7039
bin	3.33928e-05	7048
bin	3.3464e-05	6691
bin	3.35352e-05	6798
bin	3.36064e-05	6858
bin	3.36776e-05	6934
bin	3.37488e-05	6673
bin	3.382e-05	6950
bin	3.38912e-05	6712
bin	3.39624e-05	6790
bin	3.40336e-05	6616
bin	3.41048e-05	6791
bin	3.4176e-05	6698
bin	3.42472e-05	6549
bin	3.43184e-05	6629
bin	3.43896e-05	6601
bin	3.44608e-05	6755
bin	3.4532e-05	6505
bin	3.46032e-05	6614
bin	3.46744e-05	6412
bin	3.47456e-05	6518
bin	3.48168e-05	6553
bin	3.4888e-05	6552
bin	3.49592e-05	6411
bin	3.50304e-05	6471
bin	3.51016e-05	6322
bin	3.51728e-05	6411
bin	3.5244e-05	6616
bin	3.53152e-05	6238
bin	3.53864e-05	6429
bin	3.54576e-05	6167
bin	3.55288e-05	6361
bin	3.56e-05	2495588
statistic Torus3d_bub.timer 	"Life Times"
field count 6291456
field mean 0.00016958412312737
field stddev 9.7195849326872e-05
field sum 1066.9310489544
field sqrsum 0.24037015017239
field min 5.39393807e-07
field max 0.000586142606063
bin	-INF	0
bin	0	4134
bin	8.544e-07	12523
bin	1.7088e-06	20931
bin	2.5632e-06	23250
bin	3.4176e-06	25601
bin	4.272e-06	23466
bin	5.1264e-06	28485
bin	5.9808e-06	20700
bin	6.8352e-06	22328
bin	7.6896e-06	21530
bin	8.544e-06	28280
bin	9.3984e-06	25079
bin	1.02528e-05	21823
bin	1.11072e-05	36603
bin	1.19616e-05	26133
bin	1.2816e-05	22932
bin	1.36704e-05	14502
bin	1.45248e-05	15299
bin	1.53792e-05	11622
bin	1.62336e-05	9615
bin	1.7088e-05	9412
bin	1.79424e-05	10082
bin	1.87968e-05	10113
bin	1.96512e-05	9856
bin	2.05056e-05	9686
bin	2.136e-05	9228
bin	2.22144e-05	9231
bin	2.30688e-05	9045
bin	2.39232e-05	8610
bin	2.47776e-05	9052
bin	2.5632e-05	8903
bin	2.64864e-05	8845
bin	2.73408e-05	9521
bin	2.81952e-05	9767
bin	2.90496e-05	9741
bin	2.9904e-05	9421
bin	3.07584e-05	9542
bin	3.16128e-05	9987
bin	3.24672e-05	9795
bin	3.33216e-05	9897
bin	3.4176e-05	10320
bin	3.50304e-05	10627
bin	3.58848e-05	10651
bin	3.67392e-05	10891
bin	3.75936e-05	10876
bin	3.8448e-05	11013
bin	3.93024e-05	11108
bin	4.01568e-05	11193
bin	4.10112e-05	11408
bin	4.18656e-05	11553
bin	4.272e-05	11485
bin	4.35744e-05	11696
bin	4.44288e-05	11900
bin	4.52832e-05	11472
bin	4.61376e-05	11728
bin	4.6992e-05	11883
bin	4.78464e-05	12335
bin	4.87008e-05	12034
bin	4.95552e-05	12505
bin	5.04096e-05	12831
bin	5.1264e-05	13136
bin	5.21184e-05	13165
bin	5.29728e-05	13458
bin	5.38272e-05	13724
bin	5.46816e-05	13756
bin	5.5536e-05	13829
bin	5.63904e-05	14300
bin	5.72448e-05	14886
bin	5.80992e-05	14488
bin	5.89536e-05	14618
bin	5.9808e-05	15269
bin	6.06624e-05	15278
bin	6.15168e-05	14977
bin	6.23712e-05	14967
bin	6.32256e-05	14976
bin	6.408e-05	15045
bin	6.49344e-05	14544
bin	6.57888e-05	14830
bin	6.66432e-05	15020
bin	6.74976e-05	14859
bin	6.8352e-05	14736
bin	6.92064e-05	15059
bin	7.00608e-05	14969
bin	7.09152e-05	14898
bin	7.17696e-05	15066
bin	7.2624e-05	14968
bin	7.34784e-05	14897
bin	7.43328e-05	14922
bin	7.51872e-05	15227
bin	7.60416e-05	15302
bin	7.6896e-05	15013
bin	7.77504e-05	15277
bin	7.86048e-05	15466
bin	7.94592e-05	15332
bin	8.03136e-05	15230
bin	8.1168e-05	15272
bin	8.20224e-05	15511
bin	8.28768e-05	15470
bin	8.37312e-05	15459
bin	8.45856e-05	15638
bin	8.544e-05	15695
bin	8.62944e-05	15525
bin	8.71488e-05	15609
bin	8.80032e-05	15987
bin	8.88576e-05	16045
bin	8.9712e-05	16044
bin	9.05664e-05	16140
bin	9.14208e-05	16026
bin	9.22752e-05	16140
bin	9.31296e-05	16378
bin	9.3984e-05	16586
bin	9.48384e-05	16455
bin	9.56928e-05	16580
bin	9.65472e-05	16451
bin	9.74016e-05	16572
bin	9.8256e-05	16434
bin	9.91104e-05	16513
bin	9.99648e-05	16383
bin	0.0001008192	16365
bin	0.0001016736	16658
bin	0.000102528	16615
bin	0.0001033824	16786
bin	0.0001042368	16778
bin	0.0001050912	16569
bin	0.0001059456	16691
bin	0.0001068	16784
bin	0.0001076544	17214
bin	0.0001085088	17010
bin	0.0001093632	17095
bin	0.0001102176	17004
bin	0.000111072	17149
bin	0.0001119264	17146
bin	0.0001127808	17353
bin	0.0001136352	17233
bin	0.0001144896	17322
bin	0.000115344	17240
bin	0.0001161984	17488
bin	0.0001170528	17656
bin	0.0001179072	17336
bin	0.0001187616	17385
bin	0.000119616	17558
bin	0.0001204704	17536
bin	0.0001213248	17593
bin	0.0001221792	17835
bin	0.0001230336	17892
bin	0.000123888	17953
bin	0.0001247424	18016
bin	0.0001255968	18229
bin	0.0001264512	18050
bin	0.0001273056	18161
bin	0.00012816	18077
bin	0.0001290144	18073
bin	0.0001298688	18254
bin	0.0001307232	18394
bin	0.0001315776	18391
bin	0.000132432	18657
bin	0.0001332864	18541
bin	0.0001341408	18578
bin	0.0001349952	18624
bin	0.0001358496	18454
bin	0.000136704	18685
bin	0.0001375584	18893
bin	0.0001384128	18867
bin	0.0001392672	18913
bin	0.0001401216	18768
bin	0.000140976	18953
bin	0.0001418304	19050
bin	0.0001426848	18807
bin	0.0001435392	18716
bin	0.0001443936	18731
bin	0.000145248	18881
bin	0.0001461024	19041
bin	0.0001469568	19089
bin	0.0001478112	19018
bin	0.0001486656	19235
bin	0.00014952	19317
bin	0.0001503744	19280
bin	0.0001512288	19427
bin	0.0001520832	19150
bin	0.0001529376	19152
bin	0.000153792	19057
bin	0.0001546464	19111
bin	0.0001555008	19300
bin	0.0001563552	19284
bin	0.0001572096	19355
bin	0.000158064	19268
bin	0.0001589184	19403
bin	0.0001597728	19582
bin	0.0001606272	19580
bin	0.0001614816	19708
bin	0.000162336	19495
bin	0.0001631904	19433
bin	0.0001640448	19475
bin	0.0001648992	19268
bin	0.0001657536	19697
bin	0.000166608	19316
bin	0.0001674624	19189
bin	0.0001683168	19586
bin	0.0001691712	19472
bin	0.0001700256	19405
bin	0.00017088	19409
bin	0.0001717344	19311
bin	0.0001725888	19387
bin	0.0001734432	19330
bin	0.0001742976	19498
bin	0.000175152	19474
bin	0.0001760064	19512
bin	0.0001768608	19460
bin	0.0001777152	19492
bin	0.0001785696	19289
bin	0.000179424	19551
bin	0.0001802784	19528
bin	0.0001811328	19543
bin	0.0001819872	19486
bin	0.0001828416	19300
bin	0.000183696	19226
bin	0.0001845504	19280
bin	0.0001854048	19161
bin	0.0001862592	19129
bin	0.0001871136	19117
bin	0.000187968	19091
bin	0.0001888224	19044
bin	0.0001896768	19221
bin	0.0001905312	19003
bin	0.0001913856	18958
bin	0.00019224	18911
bin	0.0001930944	18661
bin	0.0001939488	18906
bin	0.0001948032	18822
bin	0.0001956576	18609
bin	0.000196512	18598
bin	0.0001973664	18749
bin	0.0001982208	18570
bin	0.0001990752	18289
bin	0.0001999296	18453
bin	0.000200784	18147
bin	0.0002016384	18398
bin	0.0002024928	18428
bin	0.0002033472	18188
bin	0.0002042016	18366
bin	0.000205056	18016
bin	0.0002059104	18276
bin	0.0002067648	18063
bin	0.0002076192	18154
bin	0.0002084736	17891
bin	0.000209328	17828
bin	0.0002101824	17816
bin	0.0002110368	17922
bin	0.0002118912	17956
bin	0.0002127456	17831
bin	0.0002136	17743
bin	0.0002144544	17481
bin	0.0002153088	17537
bin	0.0002161632	17437
bin	0.0002170176	17394
bin	0.000217872	17287
bin	0.0002187264	17192
bin	0.0002195808	17261
bin	0.0002204352	17163
bin	0.0002212896	17033
bin	0.000222144	16895
bin	0.0002229984	16897
bin	0.0002238528	16819
bin	0.0002247072	16830
bin	0.0002255616	17019
bin	0.000226416	16795
bin	0.0002272704	16586
bin	0.0002281248	16532
bin	0.0002289792	16707
bin	0.0002298336	16446
bin	0.000230688	16331
bin	0.0002315424	16525
bin	0.0002323968	16402
bin	0.0002332512	16226
bin	0.0002341056	16277
bin	0.00023496	16099
bin	0.0002358144	16241
bin	0.0002366688	16165
bin	0.0002375232	16244
bin	0.0002383776	16001
bin	0.000239232	16353
bin	0.0002400864	16199
bin	0.0002409408	16136
bin	0.0002417952	16155
bin	0.0002426496	16197
bin	0.000243504	16240
bin	0.0002443584	16053
bin	0.0002452128	15767
bin	0.0002460672	15932
bin	0.0002469216	15667
bin	0.000247776	15446
bin	0.0002486304	15671
bin	0.0002494848	15525
bin	0.0002503392	15745
bin	0.0002511936	15506
bin	0.000252048	15223
bin	0.0002529024	15355
bin	0.0002537568	15197
bin	0.0002546112	15094
bin	0.0002554656	14861
bin	0.00025632	15112
bin	0.0002571744	14971
bin	0.0002580288	14890
bin	0.0002588832	14868
bin	0.0002597376	14458
bin	0.000260592	14567
bin	0.0002614464	14356
bin	0.0002623008	14345
bin	0.0002631552	14298
bin	0.0002640096	14131
bin	0.000264864	14170
bin	0.0002657184	13775
bin	0.0002665728	13788
bin	0.0002674272	13821
bin	0.0002682816	13626
bin	0.000269136	13495
bin	0.0002699904	13507
bin	0.0002708448	13420
bin	0.0002716992	13310
bin	0.0002725536	13177
bin	0.000273408	13021
bin	0.0002742624	12917
bin	0.0002751168	12884
bin	0.0002759712	12819
bin	0.0002768256	12675
bin	0.00027768	12427
bin	0.0002785344	12648
bin	0.0002793888	12480
bin	0.0002802432	12600
bin	0.0002810976	12447
bin	0.000281952	12462
bin	0.0002828064	12337
bin	0.0002836608	12195
bin	0.0002845152	12335
bin	0.0002853696	12214
bin	0.000286224	12096
bin	0.0002870784	11959
bin	0.0002879328	11927
bin	0.0002887872	11704
bin	0.0002896416	11743
bin	0.000290496	11729
bin	0.0002913504	11817
bin	0.0002922048	11875
bin	0.0002930592	11529
bin	0.0002939136	11433
bin	0.000294768	11382
bin	0.0002956224	11344
bin	0.0002964768	11091
bin	0.0002973312	10825
bin	0.0002981856	10783
bin	0.00029904	10865
bin	0.0002998944	10818
bin	0.0003007488	10675
bin	0.0003016032	10643
bin	0.0003024576	10409
bin	0.000303312	10283
bin	0.0003041664	10153
bin	0.0003050208	10072
bin	0.0003058752	9929
bin	0.0003067296	9995
bin	0.000307584	9915
bin	0.0003084384	9740
bin	0.0003092928	9732
bin	0.0003101472	9722
bin	0.0003110016	9659
bin	0.000311856	9505
bin	0.0003127104	9542
bin	0.0003135648	9443
bin	0.0003144192	9470
bin	0.0003152736	9380
bin	0.000316128	9289
bin	0.0003169824	9284
bin	0.0003178368	9007
bin	0.0003186912	8786
bin	0.0003195456	8766
bin	0.0003204	8613
bin	0.0003212544	8370
bin	0.0003221088	8339
bin	0.0003229632	8273
bin	0.0003238176	7956
bin	0.000324672	7824
bin	0.0003255264	7774
bin	0.0003263808	7417
bin	0.0003272352	7307
bin	0.0003280896	7331
bin	0.000328944	7171
bin	0.0003297984	7102
bin	0.0003306528	7017
bin	0.0003315072	6945
bin	0.0003323616	6680
bin	0.000333216	6579
bin	0.0003340704	6290
bin	0.0003349248	6554
bin	0.0003357792	6440
bin	0.0003366336	6383
bin	0.000337488	6353
bin	0.0003383424	6178
bin	0.0003391968	6174
bin	0.0003400512	6030
bin	0.0003409056	5882
bin	0.00034176	5646
bin	0.0003426144	5703
bin	0.0003434688	5716
bin	0.0003443232	5577
bin	0.0003451776	5503
bin	0.000346032	5356
bin	0.0003468864	5155
bin	0.0003477408	5098
bin	0.0003485952	4975
bin	0.0003494496	4837
bin	0.000350304	4671
bin	0.0003511584	4682
bin	0.0003520128	4643
bin	0.0003528672	4608
bin	0.0003537216	4502
bin	0.000354576	4576
bin	0.0003554304	4366
bin	0.0003562848	4366
bin	0.0003571392	4359
bin	0.0003579936	4266
bin	0.000358848	4109
bin	0.0003597024	4059
bin	0.0003605568	3974
bin	0.0003614112	3942
bin	0.0003622656	3864
bin	0.00036312	3806
bin	0.0003639744	3641
bin	0.0003648288	3384
bin	0.0003656832	3326
bin	0.0003665376	3350
bin	0.000367392	3193
bin	0.0003682464	3110
bin	0.0003691008	2997
bin	0.0003699552	2986
bin	0.0003708096	2888
bin	0.000371664	2805
bin	0.0003725184	2755
bin	0.0003733728	2592
bin	0.0003742272	2503
bin	0.0003750816	2418
bin	0.000375936	2379
bin	0.0003767904	2295
bin	0.0003776448	2234
bin	0.0003784992	2175
bin	0.0003793536	2113
bin	0.000380208	2063
bin	0.0003810624	1957
bin	0.0003819168	1860
bin	0.0003827712	1826
bin	0.0003836256	1812
bin	0.00038448	1702
bin	0.0003853344	1685
bin	0.0003861888	1720
bin	0.0003870432	1679
bin	0.0003878976	1594
bin	0.000388752	1645
bin	0.0003896064	1605
bin	0.0003904608	1546
bin	0.0003913152	1487
bin	0.0003921696	1506
bin	0.000393024	1461
bin	0.0003938784	1408
bin	0.0003947328	1301
bin	0.0003955872	1255
bin	0.0003964416	1240
bin	0.000397296	1163
bin	0.0003981504	1121
bin	0.0003990048	1107
bin	0.0003998592	989
bin	0.0004007136	956
bin	0.000401568	926
bin	0.0004024224	891
bin	0.0004032768	776
bin	0.0004041312	792
bin	0.0004049856	758
bin	0.00040584	760
bin	0.0004066944	732
bin	0.0004075488	733
bin	0.0004084032	687
bin	0.0004092576	706
bin	0.000410112	687
bin	0.0004109664	691
bin	0.0004118208	698
bin	0.0004126752	702
bin	0.0004135296	692
bin	0.000414384	719
bin	0.0004152384	684
bin	0.0004160928	700
bin	0.0004169472	722
bin	0.0004178016	643
bin	0.000418656	628
bin	0.0004195104	657
bin	0.0004203648	568
bin	0.0004212192	544
bin	0.0004220736	546
bin	0.000422928	525
bin	0.0004237824	516
bin	0.0004246368	494
bin	0.0004254912	473
bin	0.0004263456	447
bin	0.0004272	9607
