version 2
run Butterfly-152-20120709-14:34:50-24203
attr alg 0
attr buf 8
attr configname Butterfly
attr datetime 20120709-14:34:50
attr delta 0.6
attr experiment Butterfly
attr ext false
attr inifile altro.ini
attr iterationvars "$buf=8, $ext=false, $ofedge=2, $delta=0.6, $alg=0"
attr iterationvars2 "$buf=8, $ext=false, $ofedge=2, $delta=0.6, $alg=0, $repetition=0"
attr measurement "$buf=8, $ext=false, $ofedge=2, $delta=0.6, $alg=0"
attr network Torus3d_bub
attr ofedge 2
attr processid 24203
attr repetition 0
attr replication #0
attr resultdir altro-results
attr runnumber 152
attr seedset 152

scalar . 	alg 	0
scalar . 	buf 	8
scalar . 	delta 	0.6
scalar . 	ofedge 	2
scalar Torus3d_bub.timer 	#endTime 	0.001385396331408
scalar Torus3d_bub.timer 	#totalHops 	23592960
scalar Torus3d_bub.timer 	#totalPacks 	6291456
scalar Torus3d_bub.timer 	#totalDerouted 	0
scalar Torus3d_bub.timer 	#totalOutFlanked 	0
scalar Torus3d_bub.timer 	#totalCQRed 	0
scalar Torus3d_bub.timer 	#LB 	0.000786432
scalar Torus3d_bub.timer 	#ratio 	0.56765849755119
statistic Torus3d_bub.timer 	"Hop Times"
field count 6291456
field mean 1.4105939151511e-05
field stddev 1.6199256263547e-05
field sum 88.746895510407
field sqrsum 0.00290283615606
field min 4.50332853e-07
field max 0.000124922331718
bin	-INF	0
bin	0	0
bin	7.12e-08	0
bin	1.424e-07	0
bin	2.136e-07	0
bin	2.848e-07	0
bin	3.56e-07	0
bin	4.272e-07	12824
bin	4.984e-07	21448
bin	5.696e-07	17184
bin	6.408e-07	23760
bin	7.12e-07	17680
bin	7.832e-07	7464
bin	8.544e-07	17976
bin	9.256e-07	17528
bin	9.968e-07	18000
bin	1.068e-06	1232
bin	1.1392e-06	35400
bin	1.2104e-06	24352
bin	1.2816e-06	25080
bin	1.3528e-06	19064
bin	1.424e-06	21072
bin	1.4952e-06	12584
bin	1.5664e-06	21704
bin	1.6376e-06	21416
bin	1.7088e-06	36528
bin	1.78e-06	24984
bin	1.8512e-06	21176
bin	1.9224e-06	53224
bin	1.9936e-06	29184
bin	2.0648e-06	42920
bin	2.136e-06	41912
bin	2.2072e-06	37536
bin	2.2784e-06	27160
bin	2.3496e-06	22208
bin	2.4208e-06	24440
bin	2.492e-06	36576
bin	2.5632e-06	33328
bin	2.6344e-06	24608
bin	2.7056e-06	15680
bin	2.7768e-06	19912
bin	2.848e-06	24448
bin	2.9192e-06	23976
bin	2.9904e-06	20888
bin	3.0616e-06	37400
bin	3.1328e-06	16936
bin	3.204e-06	30368
bin	3.2752e-06	16656
bin	3.3464e-06	28432
bin	3.4176e-06	18376
bin	3.4888e-06	24640
bin	3.56e-06	36560
bin	3.6312e-06	15672
bin	3.7024e-06	52240
bin	3.7736e-06	20024
bin	3.8448e-06	61816
bin	3.916e-06	22168
bin	3.9872e-06	37864
bin	4.0584e-06	27192
bin	4.1296e-06	28560
bin	4.2008e-06	24704
bin	4.272e-06	34304
bin	4.3432e-06	36864
bin	4.4144e-06	17640
bin	4.4856e-06	27456
bin	4.5568e-06	18400
bin	4.628e-06	30520
bin	4.6992e-06	2672
bin	4.7704e-06	25208
bin	4.8416e-06	24216
bin	4.9128e-06	28488
bin	4.984e-06	13624
bin	5.0552e-06	18232
bin	5.1264e-06	29128
bin	5.1976e-06	26008
bin	5.2688e-06	39128
bin	5.34e-06	29760
bin	5.4112e-06	43768
bin	5.4824e-06	24248
bin	5.5536e-06	26536
bin	5.6248e-06	27840
bin	5.696e-06	39160
bin	5.7672e-06	25008
bin	5.8384e-06	39272
bin	5.9096e-06	28704
bin	5.9808e-06	23800
bin	6.052e-06	26600
bin	6.1232e-06	11136
bin	6.1944e-06	33536
bin	6.2656e-06	14464
bin	6.3368e-06	28048
bin	6.408e-06	18936
bin	6.4792e-06	33320
bin	6.5504e-06	12752
bin	6.6216e-06	21664
bin	6.6928e-06	32416
bin	6.764e-06	24032
bin	6.8352e-06	31136
bin	6.9064e-06	27984
bin	6.9776e-06	22752
bin	7.0488e-06	25176
bin	7.12e-06	24656
bin	7.1912e-06	48608
bin	7.2624e-06	59680
bin	7.3336e-06	24680
bin	7.4048e-06	43280
bin	7.476e-06	32440
bin	7.5472e-06	9216
bin	7.6184e-06	19064
bin	7.6896e-06	12488
bin	7.7608e-06	39976
bin	7.832e-06	26592
bin	7.9032e-06	27352
bin	7.9744e-06	16632
bin	8.0456e-06	33080
bin	8.1168e-06	21208
bin	8.188e-06	38560
bin	8.2592e-06	20672
bin	8.3304e-06	17664
bin	8.4016e-06	22256
bin	8.4728e-06	28632
bin	8.544e-06	28696
bin	8.6152e-06	22536
bin	8.6864e-06	26680
bin	8.7576e-06	43608
bin	8.8288e-06	40904
bin	8.9e-06	28320
bin	8.9712e-06	59872
bin	9.0424e-06	33744
bin	9.1136e-06	18952
bin	9.1848e-06	14360
bin	9.256e-06	24976
bin	9.3272e-06	25792
bin	9.3984e-06	36528
bin	9.4696e-06	22624
bin	9.5408e-06	33088
bin	9.612e-06	20920
bin	9.6832e-06	20800
bin	9.7544e-06	34544
bin	9.8256e-06	14024
bin	9.8968e-06	34856
bin	9.968e-06	34912
bin	1.00392e-05	34024
bin	1.01104e-05	29168
bin	1.01816e-05	25168
bin	1.02528e-05	22688
bin	1.0324e-05	32712
bin	1.03952e-05	25984
bin	1.04664e-05	13792
bin	1.05376e-05	25352
bin	1.06088e-05	17944
bin	1.068e-05	32192
bin	1.07512e-05	16984
bin	1.08224e-05	26944
bin	1.08936e-05	27152
bin	1.09648e-05	23864
bin	1.1036e-05	19080
bin	1.11072e-05	26392
bin	1.11784e-05	29896
bin	1.12496e-05	6328
bin	1.13208e-05	24240
bin	1.1392e-05	19688
bin	1.14632e-05	25144
bin	1.15344e-05	21616
bin	1.16056e-05	23120
bin	1.16768e-05	30960
bin	1.1748e-05	22896
bin	1.18192e-05	9352
bin	1.18904e-05	28816
bin	1.19616e-05	40496
bin	1.20328e-05	13688
bin	1.2104e-05	8384
bin	1.21752e-05	35288
bin	1.22464e-05	29496
bin	1.23176e-05	24008
bin	1.23888e-05	24640
bin	1.246e-05	26448
bin	1.25312e-05	29008
bin	1.26024e-05	16168
bin	1.26736e-05	37376
bin	1.27448e-05	30352
bin	1.2816e-05	21696
bin	1.28872e-05	28448
bin	1.29584e-05	16248
bin	1.30296e-05	15440
bin	1.31008e-05	12936
bin	1.3172e-05	16880
bin	1.32432e-05	11712
bin	1.33144e-05	10816
bin	1.33856e-05	8096
bin	1.34568e-05	16280
bin	1.3528e-05	11960
bin	1.35992e-05	5664
bin	1.36704e-05	5864
bin	1.37416e-05	8968
bin	1.38128e-05	11664
bin	1.3884e-05	10080
bin	1.39552e-05	9232
bin	1.40264e-05	3000
bin	1.40976e-05	3936
bin	1.41688e-05	5040
bin	1.424e-05	4672
bin	1.43112e-05	3984
bin	1.43824e-05	856
bin	1.44536e-05	7240
bin	1.45248e-05	3680
bin	1.4596e-05	3400
bin	1.46672e-05	2176
bin	1.47384e-05	4760
bin	1.48096e-05	2552
bin	1.48808e-05	1816
bin	1.4952e-05	3560
bin	1.50232e-05	3568
bin	1.50944e-05	3472
bin	1.51656e-05	656
bin	1.52368e-05	3552
bin	1.5308e-05	3616
bin	1.53792e-05	3408
bin	1.54504e-05	2136
bin	1.55216e-05	4840
bin	1.55928e-05	2472
bin	1.5664e-05	1864
bin	1.57352e-05	3640
bin	1.58064e-05	3584
bin	1.58776e-05	3552
bin	1.59488e-05	792
bin	1.602e-05	3584
bin	1.60912e-05	3664
bin	1.61624e-05	3616
bin	1.62336e-05	2112
bin	1.63048e-05	5008
bin	1.6376e-05	5152
bin	1.64472e-05	1960
bin	1.65184e-05	6624
bin	1.65896e-05	3552
bin	1.66608e-05	4832
bin	1.6732e-05	944
bin	1.68032e-05	6432
bin	1.68744e-05	6448
bin	1.69456e-05	4808
bin	1.70168e-05	2248
bin	1.7088e-05	6472
bin	1.71592e-05	3936
bin	1.72304e-05	2176
bin	1.73016e-05	9024
bin	1.73728e-05	3696
bin	1.7444e-05	3688
bin	1.75152e-05	912
bin	1.75864e-05	7848
bin	1.76576e-05	3656
bin	1.77288e-05	2376
bin	1.78e-05	4936
bin	1.78712e-05	3576
bin	1.79424e-05	2432
bin	1.80136e-05	832
bin	1.80848e-05	5416
bin	1.8156e-05	4824
bin	1.82272e-05	3576
bin	1.82984e-05	2320
bin	1.83696e-05	6216
bin	1.84408e-05	4888
bin	1.8512e-05	3632
bin	1.85832e-05	4992
bin	1.86544e-05	4904
bin	1.87256e-05	3688
bin	1.87968e-05	2064
bin	1.8868e-05	6472
bin	1.89392e-05	4792
bin	1.90104e-05	2264
bin	1.90816e-05	2232
bin	1.91528e-05	6256
bin	1.9224e-05	3608
bin	1.92952e-05	3544
bin	1.93664e-05	3480
bin	1.94376e-05	6256
bin	1.95088e-05	2376
bin	1.958e-05	2088
bin	1.96512e-05	5016
bin	1.97224e-05	4800
bin	1.97936e-05	2512
bin	1.98648e-05	2192
bin	1.9936e-05	6032
bin	2.00072e-05	3680
bin	2.00784e-05	3480
bin	2.01496e-05	3400
bin	2.02208e-05	6200
bin	2.0292e-05	2200
bin	2.03632e-05	2000
bin	2.04344e-05	4952
bin	2.05056e-05	4736
bin	2.05768e-05	2256
bin	2.0648e-05	2184
bin	2.07192e-05	6056
bin	2.07904e-05	3576
bin	2.08616e-05	3400
bin	2.09328e-05	3376
bin	2.1004e-05	6128
bin	2.10752e-05	2096
bin	2.11464e-05	1976
bin	2.12176e-05	4904
bin	2.12888e-05	4688
bin	2.136e-05	2264
bin	2.14312e-05	2000
bin	2.15024e-05	5992
bin	2.15736e-05	3616
bin	2.16448e-05	3280
bin	2.1716e-05	3336
bin	2.17872e-05	9208
bin	2.18584e-05	2056
bin	2.19296e-05	1336
bin	2.20008e-05	7944
bin	2.2072e-05	4032
bin	2.21432e-05	5432
bin	2.22144e-05	1360
bin	2.22856e-05	5864
bin	2.23568e-05	3688
bin	2.2428e-05	2568
bin	2.24992e-05	3272
bin	2.25704e-05	4808
bin	2.26416e-05	2072
bin	2.27128e-05	488
bin	2.2784e-05	4744
bin	2.28552e-05	3416
bin	2.29264e-05	2032
bin	2.29976e-05	1216
bin	2.30688e-05	7344
bin	2.314e-05	856
bin	2.32112e-05	1768
bin	2.32824e-05	3328
bin	2.33536e-05	4792
bin	2.34248e-05	2056
bin	2.3496e-05	1016
bin	2.35672e-05	4560
bin	2.36384e-05	3480
bin	2.37096e-05	640
bin	2.37808e-05	528
bin	2.3852e-05	3296
bin	2.39232e-05	856
bin	2.39944e-05	296
bin	2.40656e-05	3216
bin	2.41368e-05	776
bin	2.4208e-05	592
bin	2.42792e-05	256
bin	2.43504e-05	3304
bin	2.44216e-05	624
bin	2.44928e-05	624
bin	2.4564e-05	544
bin	2.46352e-05	3232
bin	2.47064e-05	832
bin	2.47776e-05	336
bin	2.48488e-05	3152
bin	2.492e-05	504
bin	2.49912e-05	528
bin	2.50624e-05	280
bin	2.51336e-05	3488
bin	2.52048e-05	6384
bin	2.5276e-05	448
bin	2.53472e-05	832
bin	2.54184e-05	3176
bin	2.54896e-05	6712
bin	2.55608e-05	392
bin	2.5632e-05	3240
bin	2.57032e-05	400
bin	2.57744e-05	3288
bin	2.58456e-05	688
bin	2.59168e-05	3232
bin	2.5988e-05	3304
bin	2.60592e-05	680
bin	2.61304e-05	608
bin	2.62016e-05	3264
bin	2.62728e-05	3304
bin	2.6344e-05	1672
bin	2.64152e-05	3256
bin	2.64864e-05	624
bin	2.65576e-05	3728
bin	2.66288e-05	1144
bin	2.67e-05	3264
bin	2.67712e-05	3288
bin	2.68424e-05	720
bin	2.69136e-05	1184
bin	2.69848e-05	4224
bin	2.7056e-05	3840
bin	2.71272e-05	1176
bin	2.71984e-05	3224
bin	2.72696e-05	1688
bin	2.73408e-05	3224
bin	2.7412e-05	1080
bin	2.74832e-05	3224
bin	2.75544e-05	3856
bin	2.76256e-05	680
bin	2.76968e-05	1192
bin	2.7768e-05	3264
bin	2.78392e-05	3688
bin	2.79104e-05	1152
bin	2.79816e-05	3232
bin	2.80528e-05	1192
bin	2.8124e-05	3192
bin	2.81952e-05	1176
bin	2.82664e-05	3168
bin	2.83376e-05	3888
bin	2.84088e-05	744
bin	2.848e-05	1504
bin	2.85512e-05	3216
bin	2.86224e-05	3800
bin	2.86936e-05	1160
bin	2.87648e-05	792
bin	2.8836e-05	1160
bin	2.89072e-05	3144
bin	2.89784e-05	1224
bin	2.90496e-05	664
bin	2.91208e-05	3888
bin	2.9192e-05	688
bin	2.92632e-05	1328
bin	2.93344e-05	624
bin	2.94056e-05	3904
bin	2.94768e-05	1216
bin	2.9548e-05	664
bin	2.96192e-05	1232
bin	2.96904e-05	3272
bin	2.97616e-05	1288
bin	2.98328e-05	680
bin	2.9904e-05	4200
bin	2.99752e-05	768
bin	3.00464e-05	936
bin	3.01176e-05	600
bin	3.01888e-05	4744
bin	3.026e-05	1232
bin	3.03312e-05	1016
bin	3.04024e-05	2112
bin	3.04736e-05	3440
bin	3.05448e-05	1800
bin	3.0616e-05	696
bin	3.06872e-05	4232
bin	3.07584e-05	1344
bin	3.08296e-05	1816
bin	3.09008e-05	824
bin	3.0972e-05	4456
bin	3.10432e-05	2104
bin	3.11144e-05	664
bin	3.11856e-05	1176
bin	3.12568e-05	3992
bin	3.1328e-05	2048
bin	3.13992e-05	1000
bin	3.14704e-05	3720
bin	3.15416e-05	760
bin	3.16128e-05	864
bin	3.1684e-05	1496
bin	3.17552e-05	3544
bin	3.18264e-05	2224
bin	3.18976e-05	776
bin	3.19688e-05	1312
bin	3.204e-05	3704
bin	3.21112e-05	1856
bin	3.21824e-05	3808
bin	3.22536e-05	6960
bin	3.23248e-05	712
bin	3.2396e-05	1840
bin	3.24672e-05	4424
bin	3.25384e-05	7144
bin	3.26096e-05	4960
bin	3.26808e-05	1128
bin	3.2752e-05	1384
bin	3.28232e-05	6896
bin	3.28944e-05	8352
bin	3.29656e-05	1048
bin	3.30368e-05	5120
bin	3.3108e-05	3968
bin	3.31792e-05	4776
bin	3.32504e-05	4984
bin	3.33216e-05	4352
bin	3.33928e-05	1600
bin	3.3464e-05	3968
bin	3.35352e-05	8144
bin	3.36064e-05	3936
bin	3.36776e-05	1328
bin	3.37488e-05	3640
bin	3.382e-05	4216
bin	3.38912e-05	584
bin	3.39624e-05	976
bin	3.40336e-05	1288
bin	3.41048e-05	3312
bin	3.4176e-05	1168
bin	3.42472e-05	440
bin	3.43184e-05	1128
bin	3.43896e-05	3272
bin	3.44608e-05	1096
bin	3.4532e-05	416
bin	3.46032e-05	3944
bin	3.46744e-05	576
bin	3.47456e-05	776
bin	3.48168e-05	1192
bin	3.4888e-05	3120
bin	3.49592e-05	1072
bin	3.50304e-05	400
bin	3.51016e-05	1056
bin	3.51728e-05	3112
bin	3.5244e-05	552
bin	3.53152e-05	448
bin	3.53864e-05	3328
bin	3.54576e-05	552
bin	3.55288e-05	888
bin	3.56e-05	606704
statistic Torus3d_bub.timer 	"Life Times"
field count 6291456
field mean 3.5983881503098e-05
field stddev 2.9581349006684e-05
field sum 226.39100718596
field sqrsum 0.013651803937688
field min 5.2e-07
field max 0.000198024998349
bin	-INF	0
bin	0	14408
bin	8.544e-07	63928
bin	1.7088e-06	118176
bin	2.5632e-06	86040
bin	3.4176e-06	86576
bin	4.272e-06	87856
bin	5.1264e-06	106096
bin	5.9808e-06	113824
bin	6.8352e-06	99496
bin	7.6896e-06	100976
bin	8.544e-06	122016
bin	9.3984e-06	95512
bin	1.02528e-05	107504
bin	1.11072e-05	143280
bin	1.19616e-05	106224
bin	1.2816e-05	100848
bin	1.36704e-05	84792
bin	1.45248e-05	113696
bin	1.53792e-05	108624
bin	1.62336e-05	113536
bin	1.7088e-05	107800
bin	1.79424e-05	116520
bin	1.87968e-05	112544
bin	1.96512e-05	104224
bin	2.05056e-05	102448
bin	2.136e-05	91992
bin	2.22144e-05	110192
bin	2.30688e-05	86432
bin	2.39232e-05	96384
bin	2.47776e-05	105712
bin	2.5632e-05	78712
bin	2.64864e-05	62624
bin	2.73408e-05	71680
bin	2.81952e-05	77584
bin	2.90496e-05	76600
bin	2.9904e-05	59152
bin	3.07584e-05	93992
bin	3.16128e-05	72984
bin	3.24672e-05	67600
bin	3.33216e-05	77272
bin	3.4176e-05	75448
bin	3.50304e-05	61168
bin	3.58848e-05	57384
bin	3.67392e-05	57032
bin	3.75936e-05	49056
bin	3.8448e-05	51752
bin	3.93024e-05	40224
bin	4.01568e-05	40872
bin	4.10112e-05	59640
bin	4.18656e-05	68024
bin	4.272e-05	63968
bin	4.35744e-05	61496
bin	4.44288e-05	51368
bin	4.52832e-05	49824
bin	4.61376e-05	61632
bin	4.6992e-05	52072
bin	4.78464e-05	43240
bin	4.87008e-05	31112
bin	4.95552e-05	40384
bin	5.04096e-05	22840
bin	5.1264e-05	19896
bin	5.21184e-05	25416
bin	5.29728e-05	22864
bin	5.38272e-05	28104
bin	5.46816e-05	33968
bin	5.5536e-05	24952
bin	5.63904e-05	33064
bin	5.72448e-05	43672
bin	5.80992e-05	35560
bin	5.89536e-05	42288
bin	5.9808e-05	26528
bin	6.06624e-05	26584
bin	6.15168e-05	24008
bin	6.23712e-05	17088
bin	6.32256e-05	20008
bin	6.408e-05	32256
bin	6.49344e-05	40832
bin	6.57888e-05	27816
bin	6.66432e-05	23496
bin	6.74976e-05	32688
bin	6.8352e-05	24080
bin	6.92064e-05	31408
bin	7.00608e-05	36816
bin	7.09152e-05	44792
bin	7.17696e-05	47184
bin	7.2624e-05	21504
bin	7.34784e-05	17952
bin	7.43328e-05	14088
bin	7.51872e-05	20664
bin	7.60416e-05	28728
bin	7.6896e-05	10032
bin	7.77504e-05	8456
bin	7.86048e-05	12376
bin	7.94592e-05	28504
bin	8.03136e-05	15552
bin	8.1168e-05	20480
bin	8.20224e-05	16928
bin	8.28768e-05	8952
bin	8.37312e-05	9824
bin	8.45856e-05	6528
bin	8.544e-05	19576
bin	8.62944e-05	11808
bin	8.71488e-05	18016
bin	8.80032e-05	18616
bin	8.88576e-05	5832
bin	8.9712e-05	3072
bin	9.05664e-05	8544
bin	9.14208e-05	4632
bin	9.22752e-05	12304
bin	9.31296e-05	15128
bin	9.3984e-05	6616
bin	9.48384e-05	5376
bin	9.56928e-05	10264
bin	9.65472e-05	3160
bin	9.74016e-05	15416
bin	9.8256e-05	19360
bin	9.91104e-05	16104
bin	9.99648e-05	18208
bin	0.0001008192	24088
bin	0.0001016736	16560
bin	0.000102528	20216
bin	0.0001033824	11288
bin	0.0001042368	12624
bin	0.0001050912	19280
bin	0.0001059456	12968
bin	0.0001068	9552
bin	0.0001076544	15008
bin	0.0001085088	8760
bin	0.0001093632	5960
bin	0.0001102176	8752
bin	0.000111072	11296
bin	0.0001119264	944
bin	0.0001127808	2752
bin	0.0001136352	1728
bin	0.0001144896	824
bin	0.000115344	128
bin	0.0001161984	112
bin	0.0001170528	136
bin	0.0001179072	136
bin	0.0001187616	152
bin	0.000119616	176
bin	0.0001204704	176
bin	0.0001213248	504
bin	0.0001221792	464
bin	0.0001230336	1328
bin	0.000123888	1072
bin	0.0001247424	512
bin	0.0001255968	840
bin	0.0001264512	1112
bin	0.0001273056	1736
bin	0.00012816	4688
bin	0.0001290144	3936
bin	0.0001298688	10504
bin	0.0001307232	4640
bin	0.0001315776	8480
bin	0.000132432	11144
bin	0.0001332864	5224
bin	0.0001341408	7904
bin	0.0001349952	3576
bin	0.0001358496	280
bin	0.000136704	200
bin	0.0001375584	160
bin	0.0001384128	88
bin	0.0001392672	16
bin	0.0001401216	48
bin	0.000140976	72
bin	0.0001418304	56
bin	0.0001426848	80
bin	0.0001435392	136
bin	0.0001443936	96
bin	0.000145248	104
bin	0.0001461024	416
bin	0.0001469568	984
bin	0.0001478112	7672
bin	0.0001486656	6928
bin	0.00014952	7008
bin	0.0001503744	1112
bin	0.0001512288	7312
bin	0.0001520832	312
bin	0.0001529376	936
bin	0.000153792	336
bin	0.0001546464	56
bin	0.0001555008	40
bin	0.0001563552	40
bin	0.0001572096	48
bin	0.000158064	272
bin	0.0001589184	568
bin	0.0001597728	320
bin	0.0001606272	296
bin	0.0001614816	40
bin	0.000162336	32
bin	0.0001631904	32
bin	0.0001640448	40
bin	0.0001648992	40
bin	0.0001657536	24
bin	0.000166608	56
bin	0.0001674624	24
bin	0.0001683168	8
bin	0.0001691712	8
bin	0.0001700256	24
bin	0.00017088	40
bin	0.0001717344	32
bin	0.0001725888	16
bin	0.0001734432	8
bin	0.0001742976	8
bin	0.000175152	24
bin	0.0001760064	32
bin	0.0001768608	8
bin	0.0001777152	0
bin	0.0001785696	0
bin	0.000179424	0
bin	0.0001802784	0
bin	0.0001811328	0
bin	0.0001819872	8
bin	0.0001828416	8
bin	0.000183696	0
bin	0.0001845504	8
bin	0.0001854048	0
bin	0.0001862592	0
bin	0.0001871136	8
bin	0.000187968	24
bin	0.0001888224	40
bin	0.0001896768	72
bin	0.0001905312	312
bin	0.0001913856	296
bin	0.00019224	304
bin	0.0001930944	48
bin	0.0001939488	16
bin	0.0001948032	16
bin	0.0001956576	64
bin	0.000196512	72
bin	0.0001973664	32
bin	0.0001982208	0
bin	0.0001990752	0
bin	0.0001999296	0
bin	0.000200784	0
bin	0.0002016384	0
bin	0.0002024928	0
bin	0.0002033472	0
bin	0.0002042016	0
bin	0.000205056	0
bin	0.0002059104	0
bin	0.0002067648	0
bin	0.0002076192	0
bin	0.0002084736	0
bin	0.000209328	0
bin	0.0002101824	0
bin	0.0002110368	0
bin	0.0002118912	0
bin	0.0002127456	0
bin	0.0002136	0
bin	0.0002144544	0
bin	0.0002153088	0
bin	0.0002161632	0
bin	0.0002170176	0
bin	0.000217872	0
bin	0.0002187264	0
bin	0.0002195808	0
bin	0.0002204352	0
bin	0.0002212896	0
bin	0.000222144	0
bin	0.0002229984	0
bin	0.0002238528	0
bin	0.0002247072	0
bin	0.0002255616	0
bin	0.000226416	0
bin	0.0002272704	0
bin	0.0002281248	0
bin	0.0002289792	0
bin	0.0002298336	0
bin	0.000230688	0
bin	0.0002315424	0
bin	0.0002323968	0
bin	0.0002332512	0
bin	0.0002341056	0
bin	0.00023496	0
bin	0.0002358144	0
bin	0.0002366688	0
bin	0.0002375232	0
bin	0.0002383776	0
bin	0.000239232	0
bin	0.0002400864	0
bin	0.0002409408	0
bin	0.0002417952	0
bin	0.0002426496	0
bin	0.000243504	0
bin	0.0002443584	0
bin	0.0002452128	0
bin	0.0002460672	0
bin	0.0002469216	0
bin	0.000247776	0
bin	0.0002486304	0
bin	0.0002494848	0
bin	0.0002503392	0
bin	0.0002511936	0
bin	0.000252048	0
bin	0.0002529024	0
bin	0.0002537568	0
bin	0.0002546112	0
bin	0.0002554656	0
bin	0.00025632	0
bin	0.0002571744	0
bin	0.0002580288	0
bin	0.0002588832	0
bin	0.0002597376	0
bin	0.000260592	0
bin	0.0002614464	0
bin	0.0002623008	0
bin	0.0002631552	0
bin	0.0002640096	0
bin	0.000264864	0
bin	0.0002657184	0
bin	0.0002665728	0
bin	0.0002674272	0
bin	0.0002682816	0
bin	0.000269136	0
bin	0.0002699904	0
bin	0.0002708448	0
bin	0.0002716992	0
bin	0.0002725536	0
bin	0.000273408	0
bin	0.0002742624	0
bin	0.0002751168	0
bin	0.0002759712	0
bin	0.0002768256	0
bin	0.00027768	0
bin	0.0002785344	0
bin	0.0002793888	0
bin	0.0002802432	0
bin	0.0002810976	0
bin	0.000281952	0
bin	0.0002828064	0
bin	0.0002836608	0
bin	0.0002845152	0
bin	0.0002853696	0
bin	0.000286224	0
bin	0.0002870784	0
bin	0.0002879328	0
bin	0.0002887872	0
bin	0.0002896416	0
bin	0.000290496	0
bin	0.0002913504	0
bin	0.0002922048	0
bin	0.0002930592	0
bin	0.0002939136	0
bin	0.000294768	0
bin	0.0002956224	0
bin	0.0002964768	0
bin	0.0002973312	0
bin	0.0002981856	0
bin	0.00029904	0
bin	0.0002998944	0
bin	0.0003007488	0
bin	0.0003016032	0
bin	0.0003024576	0
bin	0.000303312	0
bin	0.0003041664	0
bin	0.0003050208	0
bin	0.0003058752	0
bin	0.0003067296	0
bin	0.000307584	0
bin	0.0003084384	0
bin	0.0003092928	0
bin	0.0003101472	0
bin	0.0003110016	0
bin	0.000311856	0
bin	0.0003127104	0
bin	0.0003135648	0
bin	0.0003144192	0
bin	0.0003152736	0
bin	0.000316128	0
bin	0.0003169824	0
bin	0.0003178368	0
bin	0.0003186912	0
bin	0.0003195456	0
bin	0.0003204	0
bin	0.0003212544	0
bin	0.0003221088	0
bin	0.0003229632	0
bin	0.0003238176	0
bin	0.000324672	0
bin	0.0003255264	0
bin	0.0003263808	0
bin	0.0003272352	0
bin	0.0003280896	0
bin	0.000328944	0
bin	0.0003297984	0
bin	0.0003306528	0
bin	0.0003315072	0
bin	0.0003323616	0
bin	0.000333216	0
bin	0.0003340704	0
bin	0.0003349248	0
bin	0.0003357792	0
bin	0.0003366336	0
bin	0.000337488	0
bin	0.0003383424	0
bin	0.0003391968	0
bin	0.0003400512	0
bin	0.0003409056	0
bin	0.00034176	0
bin	0.0003426144	0
bin	0.0003434688	0
bin	0.0003443232	0
bin	0.0003451776	0
bin	0.000346032	0
bin	0.0003468864	0
bin	0.0003477408	0
bin	0.0003485952	0
bin	0.0003494496	0
bin	0.000350304	0
bin	0.0003511584	0
bin	0.0003520128	0
bin	0.0003528672	0
bin	0.0003537216	0
bin	0.000354576	0
bin	0.0003554304	0
bin	0.0003562848	0
bin	0.0003571392	0
bin	0.0003579936	0
bin	0.000358848	0
bin	0.0003597024	0
bin	0.0003605568	0
bin	0.0003614112	0
bin	0.0003622656	0
bin	0.00036312	0
bin	0.0003639744	0
bin	0.0003648288	0
bin	0.0003656832	0
bin	0.0003665376	0
bin	0.000367392	0
bin	0.0003682464	0
bin	0.0003691008	0
bin	0.0003699552	0
bin	0.0003708096	0
bin	0.000371664	0
bin	0.0003725184	0
bin	0.0003733728	0
bin	0.0003742272	0
bin	0.0003750816	0
bin	0.000375936	0
bin	0.0003767904	0
bin	0.0003776448	0
bin	0.0003784992	0
bin	0.0003793536	0
bin	0.000380208	0
bin	0.0003810624	0
bin	0.0003819168	0
bin	0.0003827712	0
bin	0.0003836256	0
bin	0.00038448	0
bin	0.0003853344	0
bin	0.0003861888	0
bin	0.0003870432	0
bin	0.0003878976	0
bin	0.000388752	0
bin	0.0003896064	0
bin	0.0003904608	0
bin	0.0003913152	0
bin	0.0003921696	0
bin	0.000393024	0
bin	0.0003938784	0
bin	0.0003947328	0
bin	0.0003955872	0
bin	0.0003964416	0
bin	0.000397296	0
bin	0.0003981504	0
bin	0.0003990048	0
bin	0.0003998592	0
bin	0.0004007136	0
bin	0.000401568	0
bin	0.0004024224	0
bin	0.0004032768	0
bin	0.0004041312	0
bin	0.0004049856	0
bin	0.00040584	0
bin	0.0004066944	0
bin	0.0004075488	0
bin	0.0004084032	0
bin	0.0004092576	0
bin	0.000410112	0
bin	0.0004109664	0
bin	0.0004118208	0
bin	0.0004126752	0
bin	0.0004135296	0
bin	0.000414384	0
bin	0.0004152384	0
bin	0.0004160928	0
bin	0.0004169472	0
bin	0.0004178016	0
bin	0.000418656	0
bin	0.0004195104	0
bin	0.0004203648	0
bin	0.0004212192	0
bin	0.0004220736	0
bin	0.000422928	0
bin	0.0004237824	0
bin	0.0004246368	0
bin	0.0004254912	0
bin	0.0004263456	0
bin	0.0004272	0
