version 2
run Butterfly-175-20120709-15:04:05-24240
attr alg 3
attr buf 8
attr configname Butterfly
attr datetime 20120709-15:04:05
attr delta 1.6
attr experiment Butterfly
attr ext false
attr inifile altro.ini
attr iterationvars "$buf=8, $ext=false, $ofedge=2, $delta=1.6, $alg=3"
attr iterationvars2 "$buf=8, $ext=false, $ofedge=2, $delta=1.6, $alg=3, $repetition=0"
attr measurement "$buf=8, $ext=false, $ofedge=2, $delta=1.6, $alg=3"
attr network Torus3d_bub
attr ofedge 2
attr processid 24240
attr repetition 0
attr replication #0
attr resultdir altro-results
attr runnumber 175
attr seedset 175

scalar . 	alg 	3
scalar . 	buf 	8
scalar . 	delta 	1.6
scalar . 	ofedge 	2
scalar Torus3d_bub.timer 	#endTime 	0.000980810998516
scalar Torus3d_bub.timer 	#totalHops 	46121479
scalar Torus3d_bub.timer 	#totalPacks 	6291456
scalar Torus3d_bub.timer 	#totalDerouted 	3924230
scalar Torus3d_bub.timer 	#totalOutFlanked 	3734018
scalar Torus3d_bub.timer 	#totalCQRed 	190212
scalar Torus3d_bub.timer 	#LB 	0.000786432
scalar Torus3d_bub.timer 	#ratio 	0.80181808848993
statistic Torus3d_bub.timer 	"Hop Times"
field count 6291456
field mean 4.3936848728814e-05
field stddev 6.2308773967797e-05
field sum 276.42675055599
field sqrsum 0.036571160232594
field min 4.73599985e-07
field max 0.000635772333285
bin	-INF	0
bin	0	0
bin	7.12e-08	0
bin	1.424e-07	0
bin	2.136e-07	0
bin	2.848e-07	0
bin	3.56e-07	0
bin	4.272e-07	2
bin	4.984e-07	6181
bin	5.696e-07	3159
bin	6.408e-07	2209
bin	7.12e-07	8503
bin	7.832e-07	3364
bin	8.544e-07	4463
bin	9.256e-07	6833
bin	9.968e-07	6926
bin	1.068e-06	5137
bin	1.1392e-06	8396
bin	1.2104e-06	9741
bin	1.2816e-06	8946
bin	1.3528e-06	12607
bin	1.424e-06	8980
bin	1.4952e-06	16129
bin	1.5664e-06	9107
bin	1.6376e-06	14216
bin	1.7088e-06	11254
bin	1.78e-06	17718
bin	1.8512e-06	10334
bin	1.9224e-06	18121
bin	1.9936e-06	16032
bin	2.0648e-06	21228
bin	2.136e-06	13750
bin	2.2072e-06	9191
bin	2.2784e-06	18638
bin	2.3496e-06	10320
bin	2.4208e-06	15284
bin	2.492e-06	15490
bin	2.5632e-06	20975
bin	2.6344e-06	13810
bin	2.7056e-06	12789
bin	2.7768e-06	11301
bin	2.848e-06	17001
bin	2.9192e-06	10354
bin	2.9904e-06	11771
bin	3.0616e-06	16860
bin	3.1328e-06	8123
bin	3.204e-06	8340
bin	3.2752e-06	7384
bin	3.3464e-06	11344
bin	3.4176e-06	8240
bin	3.4888e-06	7486
bin	3.56e-06	8645
bin	3.6312e-06	11395
bin	3.7024e-06	7443
bin	3.7736e-06	7660
bin	3.8448e-06	13928
bin	3.916e-06	8649
bin	3.9872e-06	8646
bin	4.0584e-06	8627
bin	4.1296e-06	11744
bin	4.2008e-06	8692
bin	4.272e-06	7608
bin	4.3432e-06	7745
bin	4.4144e-06	12576
bin	4.4856e-06	7545
bin	4.5568e-06	7600
bin	4.628e-06	12036
bin	4.6992e-06	7692
bin	4.7704e-06	9781
bin	4.8416e-06	10153
bin	4.9128e-06	11915
bin	4.984e-06	7668
bin	5.0552e-06	7942
bin	5.1264e-06	8854
bin	5.1976e-06	11915
bin	5.2688e-06	7932
bin	5.34e-06	7951
bin	5.4112e-06	12473
bin	5.4824e-06	7788
bin	5.5536e-06	7998
bin	5.6248e-06	7927
bin	5.696e-06	12201
bin	5.7672e-06	7708
bin	5.8384e-06	7977
bin	5.9096e-06	10093
bin	5.9808e-06	12062
bin	6.052e-06	7972
bin	6.1232e-06	7998
bin	6.1944e-06	12350
bin	6.2656e-06	7778
bin	6.3368e-06	8333
bin	6.408e-06	8179
bin	6.4792e-06	12182
bin	6.5504e-06	8029
bin	6.6216e-06	8027
bin	6.6928e-06	7929
bin	6.764e-06	12043
bin	6.8352e-06	7686
bin	6.9064e-06	7821
bin	6.9776e-06	12087
bin	7.0488e-06	7566
bin	7.12e-06	7611
bin	7.1912e-06	7913
bin	7.2624e-06	11708
bin	7.3336e-06	7862
bin	7.4048e-06	7792
bin	7.476e-06	7759
bin	7.5472e-06	11827
bin	7.6184e-06	7680
bin	7.6896e-06	7750
bin	7.7608e-06	11981
bin	7.832e-06	7654
bin	7.9032e-06	7670
bin	7.9744e-06	7823
bin	8.0456e-06	9795
bin	8.1168e-06	7733
bin	8.188e-06	7863
bin	8.2592e-06	7866
bin	8.3304e-06	11730
bin	8.4016e-06	7741
bin	8.4728e-06	7738
bin	8.544e-06	12071
bin	8.6152e-06	7532
bin	8.6864e-06	7524
bin	8.7576e-06	7843
bin	8.8288e-06	11757
bin	8.9e-06	7809
bin	8.9712e-06	7689
bin	9.0424e-06	7698
bin	9.1136e-06	9741
bin	9.1848e-06	7878
bin	9.256e-06	7786
bin	9.3272e-06	13263
bin	9.3984e-06	7779
bin	9.4696e-06	7880
bin	9.5408e-06	8066
bin	9.612e-06	11825
bin	9.6832e-06	7967
bin	9.7544e-06	9115
bin	9.8256e-06	8016
bin	9.8968e-06	8004
bin	9.968e-06	7947
bin	1.00392e-05	7865
bin	1.01104e-05	12190
bin	1.01816e-05	7859
bin	1.02528e-05	7905
bin	1.0324e-05	8024
bin	1.03952e-05	9984
bin	1.04664e-05	8032
bin	1.05376e-05	7967
bin	1.06088e-05	7913
bin	1.068e-05	9869
bin	1.07512e-05	7915
bin	1.08224e-05	7957
bin	1.08936e-05	10038
bin	1.09648e-05	7699
bin	1.1036e-05	7968
bin	1.11072e-05	7936
bin	1.11784e-05	11889
bin	1.12496e-05	7805
bin	1.13208e-05	7867
bin	1.1392e-05	7879
bin	1.14632e-05	11806
bin	1.15344e-05	7864
bin	1.16056e-05	7821
bin	1.16768e-05	12192
bin	1.1748e-05	7731
bin	1.18192e-05	7882
bin	1.18904e-05	8234
bin	1.19616e-05	11997
bin	1.20328e-05	7879
bin	1.2104e-05	7866
bin	1.21752e-05	8012
bin	1.22464e-05	11975
bin	1.23176e-05	8884
bin	1.23888e-05	7969
bin	1.246e-05	11062
bin	1.25312e-05	7951
bin	1.26024e-05	8067
bin	1.26736e-05	8088
bin	1.27448e-05	7948
bin	1.2816e-05	8003
bin	1.28872e-05	9040
bin	1.29584e-05	9194
bin	1.30296e-05	7924
bin	1.31008e-05	8087
bin	1.3172e-05	7996
bin	1.32432e-05	8050
bin	1.33144e-05	8140
bin	1.33856e-05	9073
bin	1.34568e-05	7965
bin	1.3528e-05	9182
bin	1.35992e-05	8059
bin	1.36704e-05	9285
bin	1.37416e-05	8187
bin	1.38128e-05	8122
bin	1.3884e-05	8181
bin	1.39552e-05	8146
bin	1.40264e-05	8099
bin	1.40976e-05	8218
bin	1.41688e-05	8417
bin	1.424e-05	8163
bin	1.43112e-05	8189
bin	1.43824e-05	8270
bin	1.44536e-05	8118
bin	1.45248e-05	8230
bin	1.4596e-05	8059
bin	1.46672e-05	8204
bin	1.47384e-05	8158
bin	1.48096e-05	8102
bin	1.48808e-05	8092
bin	1.4952e-05	8076
bin	1.50232e-05	8202
bin	1.50944e-05	8153
bin	1.51656e-05	8098
bin	1.52368e-05	8249
bin	1.5308e-05	8178
bin	1.53792e-05	8226
bin	1.54504e-05	8168
bin	1.55216e-05	8436
bin	1.55928e-05	8196
bin	1.5664e-05	8072
bin	1.57352e-05	8178
bin	1.58064e-05	8270
bin	1.58776e-05	8102
bin	1.59488e-05	8244
bin	1.602e-05	8325
bin	1.60912e-05	8097
bin	1.61624e-05	8290
bin	1.62336e-05	8261
bin	1.63048e-05	8380
bin	1.6376e-05	8186
bin	1.64472e-05	8294
bin	1.65184e-05	8170
bin	1.65896e-05	8455
bin	1.66608e-05	8294
bin	1.6732e-05	8297
bin	1.68032e-05	8135
bin	1.68744e-05	8255
bin	1.69456e-05	8170
bin	1.70168e-05	8273
bin	1.7088e-05	8447
bin	1.71592e-05	8218
bin	1.72304e-05	8370
bin	1.73016e-05	8231
bin	1.73728e-05	8264
bin	1.7444e-05	8378
bin	1.75152e-05	8266
bin	1.75864e-05	8456
bin	1.76576e-05	8163
bin	1.77288e-05	8317
bin	1.78e-05	8354
bin	1.78712e-05	8400
bin	1.79424e-05	8201
bin	1.80136e-05	8392
bin	1.80848e-05	8264
bin	1.8156e-05	8228
bin	1.82272e-05	8297
bin	1.82984e-05	8269
bin	1.83696e-05	8357
bin	1.84408e-05	8279
bin	1.8512e-05	8295
bin	1.85832e-05	8285
bin	1.86544e-05	8415
bin	1.87256e-05	8124
bin	1.87968e-05	8276
bin	1.8868e-05	8286
bin	1.89392e-05	8322
bin	1.90104e-05	8278
bin	1.90816e-05	8207
bin	1.91528e-05	8447
bin	1.9224e-05	8042
bin	1.92952e-05	8455
bin	1.93664e-05	8312
bin	1.94376e-05	8314
bin	1.95088e-05	8064
bin	1.958e-05	8311
bin	1.96512e-05	8063
bin	1.97224e-05	8275
bin	1.97936e-05	8322
bin	1.98648e-05	8561
bin	1.9936e-05	8444
bin	2.00072e-05	8470
bin	2.00784e-05	8476
bin	2.01496e-05	8626
bin	2.02208e-05	8482
bin	2.0292e-05	8321
bin	2.03632e-05	8363
bin	2.04344e-05	8498
bin	2.05056e-05	8577
bin	2.05768e-05	8726
bin	2.0648e-05	8531
bin	2.07192e-05	8599
bin	2.07904e-05	8649
bin	2.08616e-05	8443
bin	2.09328e-05	8396
bin	2.1004e-05	8630
bin	2.10752e-05	8407
bin	2.11464e-05	8792
bin	2.12176e-05	8475
bin	2.12888e-05	8541
bin	2.136e-05	8468
bin	2.14312e-05	8277
bin	2.15024e-05	8469
bin	2.15736e-05	8535
bin	2.16448e-05	8512
bin	2.1716e-05	8521
bin	2.17872e-05	8632
bin	2.18584e-05	8403
bin	2.19296e-05	8523
bin	2.20008e-05	8230
bin	2.2072e-05	8473
bin	2.21432e-05	8409
bin	2.22144e-05	8403
bin	2.22856e-05	8477
bin	2.23568e-05	8397
bin	2.2428e-05	8448
bin	2.24992e-05	8516
bin	2.25704e-05	8569
bin	2.26416e-05	8403
bin	2.27128e-05	8568
bin	2.2784e-05	8374
bin	2.28552e-05	8309
bin	2.29264e-05	8194
bin	2.29976e-05	8292
bin	2.30688e-05	8305
bin	2.314e-05	8384
bin	2.32112e-05	8378
bin	2.32824e-05	8419
bin	2.33536e-05	8501
bin	2.34248e-05	8160
bin	2.3496e-05	8480
bin	2.35672e-05	8396
bin	2.36384e-05	8487
bin	2.37096e-05	8399
bin	2.37808e-05	8280
bin	2.3852e-05	8337
bin	2.39232e-05	8151
bin	2.39944e-05	8307
bin	2.40656e-05	8118
bin	2.41368e-05	8216
bin	2.4208e-05	8116
bin	2.42792e-05	8202
bin	2.43504e-05	8305
bin	2.44216e-05	8231
bin	2.44928e-05	8242
bin	2.4564e-05	8197
bin	2.46352e-05	8309
bin	2.47064e-05	8147
bin	2.47776e-05	8148
bin	2.48488e-05	8215
bin	2.492e-05	8273
bin	2.49912e-05	8169
bin	2.50624e-05	8285
bin	2.51336e-05	8216
bin	2.52048e-05	8266
bin	2.5276e-05	8269
bin	2.53472e-05	8237
bin	2.54184e-05	8428
bin	2.54896e-05	8155
bin	2.55608e-05	8273
bin	2.5632e-05	8183
bin	2.57032e-05	8305
bin	2.57744e-05	8151
bin	2.58456e-05	8207
bin	2.59168e-05	8077
bin	2.5988e-05	8153
bin	2.60592e-05	8200
bin	2.61304e-05	8027
bin	2.62016e-05	8310
bin	2.62728e-05	7889
bin	2.6344e-05	8132
bin	2.64152e-05	8000
bin	2.64864e-05	8193
bin	2.65576e-05	7843
bin	2.66288e-05	8251
bin	2.67e-05	7966
bin	2.67712e-05	8175
bin	2.68424e-05	8017
bin	2.69136e-05	8081
bin	2.69848e-05	8065
bin	2.7056e-05	8109
bin	2.71272e-05	8151
bin	2.71984e-05	8169
bin	2.72696e-05	8220
bin	2.73408e-05	8099
bin	2.7412e-05	8213
bin	2.74832e-05	8111
bin	2.75544e-05	8210
bin	2.76256e-05	8081
bin	2.76968e-05	8110
bin	2.7768e-05	8167
bin	2.78392e-05	7948
bin	2.79104e-05	8120
bin	2.79816e-05	8293
bin	2.80528e-05	8000
bin	2.8124e-05	7938
bin	2.81952e-05	8095
bin	2.82664e-05	7768
bin	2.83376e-05	7920
bin	2.84088e-05	7848
bin	2.848e-05	7789
bin	2.85512e-05	8198
bin	2.86224e-05	7817
bin	2.86936e-05	7920
bin	2.87648e-05	8107
bin	2.8836e-05	7711
bin	2.89072e-05	7873
bin	2.89784e-05	7839
bin	2.90496e-05	7816
bin	2.91208e-05	7920
bin	2.9192e-05	7753
bin	2.92632e-05	7687
bin	2.93344e-05	7782
bin	2.94056e-05	7655
bin	2.94768e-05	7730
bin	2.9548e-05	7728
bin	2.96192e-05	7708
bin	2.96904e-05	7405
bin	2.97616e-05	7647
bin	2.98328e-05	7449
bin	2.9904e-05	7653
bin	2.99752e-05	7651
bin	3.00464e-05	7487
bin	3.01176e-05	7539
bin	3.01888e-05	7312
bin	3.026e-05	7322
bin	3.03312e-05	7454
bin	3.04024e-05	7356
bin	3.04736e-05	7137
bin	3.05448e-05	7343
bin	3.0616e-05	7226
bin	3.06872e-05	7227
bin	3.07584e-05	7100
bin	3.08296e-05	7058
bin	3.09008e-05	7233
bin	3.0972e-05	7055
bin	3.10432e-05	7018
bin	3.11144e-05	7141
bin	3.11856e-05	7140
bin	3.12568e-05	6914
bin	3.1328e-05	6933
bin	3.13992e-05	6868
bin	3.14704e-05	6976
bin	3.15416e-05	6660
bin	3.16128e-05	6798
bin	3.1684e-05	6851
bin	3.17552e-05	6782
bin	3.18264e-05	6697
bin	3.18976e-05	6747
bin	3.19688e-05	6662
bin	3.204e-05	6493
bin	3.21112e-05	6668
bin	3.21824e-05	6487
bin	3.22536e-05	6559
bin	3.23248e-05	6495
bin	3.2396e-05	6570
bin	3.24672e-05	6615
bin	3.25384e-05	6421
bin	3.26096e-05	6448
bin	3.26808e-05	6534
bin	3.2752e-05	6348
bin	3.28232e-05	6170
bin	3.28944e-05	6502
bin	3.29656e-05	6380
bin	3.30368e-05	6299
bin	3.3108e-05	6325
bin	3.31792e-05	6305
bin	3.32504e-05	6310
bin	3.33216e-05	6080
bin	3.33928e-05	6216
bin	3.3464e-05	6202
bin	3.35352e-05	6156
bin	3.36064e-05	6006
bin	3.36776e-05	6164
bin	3.37488e-05	6120
bin	3.382e-05	5969
bin	3.38912e-05	6146
bin	3.39624e-05	5918
bin	3.40336e-05	5853
bin	3.41048e-05	5823
bin	3.4176e-05	5873
bin	3.42472e-05	6004
bin	3.43184e-05	5907
bin	3.43896e-05	5837
bin	3.44608e-05	5878
bin	3.4532e-05	5790
bin	3.46032e-05	5670
bin	3.46744e-05	5682
bin	3.47456e-05	5704
bin	3.48168e-05	5762
bin	3.4888e-05	5462
bin	3.49592e-05	5556
bin	3.50304e-05	5786
bin	3.51016e-05	5522
bin	3.51728e-05	5491
bin	3.5244e-05	5756
bin	3.53152e-05	5454
bin	3.53864e-05	5507
bin	3.54576e-05	5553
bin	3.55288e-05	5579
bin	3.56e-05	2153034
statistic Torus3d_bub.timer 	"Life Times"
field count 6291456
field mean 0.00019955231773221
field stddev 0.00012962437292247
field sum 1255.4746267102
field sqrsum 0.35624490618895
field min 5.2e-07
field max 0.00079016766577
bin	-INF	0
bin	0	8359
bin	8.544e-07	19728
bin	1.7088e-06	24841
bin	2.5632e-06	27431
bin	3.4176e-06	21660
bin	4.272e-06	27265
bin	5.1264e-06	28919
bin	5.9808e-06	29117
bin	6.8352e-06	21258
bin	7.6896e-06	25713
bin	8.544e-06	25388
bin	9.3984e-06	23646
bin	1.02528e-05	26217
bin	1.11072e-05	33240
bin	1.19616e-05	39959
bin	1.2816e-05	14690
bin	1.36704e-05	15787
bin	1.45248e-05	15193
bin	1.53792e-05	24748
bin	1.62336e-05	22232
bin	1.7088e-05	18941
bin	1.79424e-05	22511
bin	1.87968e-05	16887
bin	1.96512e-05	15572
bin	2.05056e-05	16649
bin	2.136e-05	16314
bin	2.22144e-05	16565
bin	2.30688e-05	16721
bin	2.39232e-05	17576
bin	2.47776e-05	16698
bin	2.5632e-05	15969
bin	2.64864e-05	17209
bin	2.73408e-05	14268
bin	2.81952e-05	13688
bin	2.90496e-05	16681
bin	2.9904e-05	13840
bin	3.07584e-05	14799
bin	3.16128e-05	13448
bin	3.24672e-05	13618
bin	3.33216e-05	13161
bin	3.4176e-05	12883
bin	3.50304e-05	12778
bin	3.58848e-05	12725
bin	3.67392e-05	13029
bin	3.75936e-05	13095
bin	3.8448e-05	13169
bin	3.93024e-05	13376
bin	4.01568e-05	13438
bin	4.10112e-05	13431
bin	4.18656e-05	13825
bin	4.272e-05	13647
bin	4.35744e-05	13383
bin	4.44288e-05	13324
bin	4.52832e-05	13392
bin	4.61376e-05	13043
bin	4.6992e-05	13390
bin	4.78464e-05	13204
bin	4.87008e-05	13108
bin	4.95552e-05	13024
bin	5.04096e-05	12746
bin	5.1264e-05	12714
bin	5.21184e-05	12722
bin	5.29728e-05	12515
bin	5.38272e-05	12356
bin	5.46816e-05	12463
bin	5.5536e-05	12465
bin	5.63904e-05	12493
bin	5.72448e-05	12522
bin	5.80992e-05	12587
bin	5.89536e-05	12670
bin	5.9808e-05	12229
bin	6.06624e-05	12457
bin	6.15168e-05	12392
bin	6.23712e-05	12519
bin	6.32256e-05	12502
bin	6.408e-05	12607
bin	6.49344e-05	12373
bin	6.57888e-05	12283
bin	6.66432e-05	12305
bin	6.74976e-05	12373
bin	6.8352e-05	12327
bin	6.92064e-05	11942
bin	7.00608e-05	12049
bin	7.09152e-05	12300
bin	7.17696e-05	12171
bin	7.2624e-05	12164
bin	7.34784e-05	12409
bin	7.43328e-05	12135
bin	7.51872e-05	12004
bin	7.60416e-05	12227
bin	7.6896e-05	12263
bin	7.77504e-05	12252
bin	7.86048e-05	12178
bin	7.94592e-05	12264
bin	8.03136e-05	12297
bin	8.1168e-05	12079
bin	8.20224e-05	12110
bin	8.28768e-05	12203
bin	8.37312e-05	11997
bin	8.45856e-05	11962
bin	8.544e-05	11906
bin	8.62944e-05	11955
bin	8.71488e-05	11965
bin	8.80032e-05	11895
bin	8.88576e-05	11929
bin	8.9712e-05	11852
bin	9.05664e-05	11721
bin	9.14208e-05	11963
bin	9.22752e-05	11883
bin	9.31296e-05	12130
bin	9.3984e-05	11719
bin	9.48384e-05	11884
bin	9.56928e-05	11641
bin	9.65472e-05	11717
bin	9.74016e-05	11680
bin	9.8256e-05	11696
bin	9.91104e-05	11549
bin	9.99648e-05	11490
bin	0.0001008192	11454
bin	0.0001016736	11493
bin	0.000102528	11635
bin	0.0001033824	11572
bin	0.0001042368	11800
bin	0.0001050912	11838
bin	0.0001059456	11740
bin	0.0001068	11950
bin	0.0001076544	12026
bin	0.0001085088	11934
bin	0.0001093632	11959
bin	0.0001102176	11925
bin	0.000111072	11938
bin	0.0001119264	11913
bin	0.0001127808	11882
bin	0.0001136352	11739
bin	0.0001144896	11914
bin	0.000115344	11759
bin	0.0001161984	11852
bin	0.0001170528	12046
bin	0.0001179072	12096
bin	0.0001187616	12009
bin	0.000119616	12217
bin	0.0001204704	12065
bin	0.0001213248	11940
bin	0.0001221792	12075
bin	0.0001230336	11910
bin	0.000123888	12119
bin	0.0001247424	12068
bin	0.0001255968	12183
bin	0.0001264512	12218
bin	0.0001273056	12285
bin	0.00012816	12212
bin	0.0001290144	12216
bin	0.0001298688	12394
bin	0.0001307232	12402
bin	0.0001315776	12329
bin	0.000132432	12421
bin	0.0001332864	12413
bin	0.0001341408	12311
bin	0.0001349952	12390
bin	0.0001358496	12321
bin	0.000136704	12620
bin	0.0001375584	12432
bin	0.0001384128	12650
bin	0.0001392672	12666
bin	0.0001401216	12743
bin	0.000140976	12487
bin	0.0001418304	12573
bin	0.0001426848	12736
bin	0.0001435392	12787
bin	0.0001443936	12871
bin	0.000145248	12808
bin	0.0001461024	12844
bin	0.0001469568	12827
bin	0.0001478112	12740
bin	0.0001486656	12644
bin	0.00014952	12895
bin	0.0001503744	12959
bin	0.0001512288	13022
bin	0.0001520832	12924
bin	0.0001529376	13015
bin	0.000153792	13075
bin	0.0001546464	13166
bin	0.0001555008	13057
bin	0.0001563552	13049
bin	0.0001572096	12794
bin	0.000158064	13022
bin	0.0001589184	12959
bin	0.0001597728	12918
bin	0.0001606272	12827
bin	0.0001614816	12924
bin	0.000162336	13033
bin	0.0001631904	13124
bin	0.0001640448	13127
bin	0.0001648992	13262
bin	0.0001657536	13143
bin	0.000166608	13202
bin	0.0001674624	13037
bin	0.0001683168	13003
bin	0.0001691712	13007
bin	0.0001700256	13208
bin	0.00017088	12930
bin	0.0001717344	13072
bin	0.0001725888	13199
bin	0.0001734432	13055
bin	0.0001742976	13133
bin	0.000175152	12980
bin	0.0001760064	13191
bin	0.0001768608	13102
bin	0.0001777152	13242
bin	0.0001785696	13267
bin	0.000179424	13177
bin	0.0001802784	13156
bin	0.0001811328	13144
bin	0.0001819872	13189
bin	0.0001828416	13277
bin	0.000183696	13106
bin	0.0001845504	13184
bin	0.0001854048	13266
bin	0.0001862592	13329
bin	0.0001871136	13130
bin	0.000187968	13115
bin	0.0001888224	13277
bin	0.0001896768	13228
bin	0.0001905312	13220
bin	0.0001913856	13535
bin	0.00019224	13347
bin	0.0001930944	13117
bin	0.0001939488	13253
bin	0.0001948032	13336
bin	0.0001956576	13284
bin	0.000196512	13373
bin	0.0001973664	13218
bin	0.0001982208	13236
bin	0.0001990752	13267
bin	0.0001999296	13359
bin	0.000200784	13201
bin	0.0002016384	13233
bin	0.0002024928	13125
bin	0.0002033472	13162
bin	0.0002042016	13149
bin	0.000205056	13329
bin	0.0002059104	13166
bin	0.0002067648	13001
bin	0.0002076192	13294
bin	0.0002084736	13276
bin	0.000209328	13190
bin	0.0002101824	13060
bin	0.0002110368	13113
bin	0.0002118912	13100
bin	0.0002127456	13059
bin	0.0002136	13203
bin	0.0002144544	13012
bin	0.0002153088	13116
bin	0.0002161632	13156
bin	0.0002170176	13080
bin	0.000217872	13057
bin	0.0002187264	13064
bin	0.0002195808	13142
bin	0.0002204352	13079
bin	0.0002212896	13088
bin	0.000222144	13165
bin	0.0002229984	13132
bin	0.0002238528	13065
bin	0.0002247072	12960
bin	0.0002255616	13127
bin	0.000226416	13216
bin	0.0002272704	13212
bin	0.0002281248	13226
bin	0.0002289792	12902
bin	0.0002298336	12996
bin	0.000230688	13256
bin	0.0002315424	13323
bin	0.0002323968	13112
bin	0.0002332512	13012
bin	0.0002341056	12982
bin	0.00023496	12936
bin	0.0002358144	12962
bin	0.0002366688	13154
bin	0.0002375232	12863
bin	0.0002383776	12883
bin	0.000239232	13043
bin	0.0002400864	13062
bin	0.0002409408	12861
bin	0.0002417952	12939
bin	0.0002426496	12649
bin	0.000243504	12710
bin	0.0002443584	12603
bin	0.0002452128	12593
bin	0.0002460672	12636
bin	0.0002469216	12716
bin	0.000247776	12671
bin	0.0002486304	12754
bin	0.0002494848	12789
bin	0.0002503392	12740
bin	0.0002511936	12715
bin	0.000252048	12589
bin	0.0002529024	12777
bin	0.0002537568	12476
bin	0.0002546112	12423
bin	0.0002554656	12357
bin	0.00025632	12345
bin	0.0002571744	12288
bin	0.0002580288	12226
bin	0.0002588832	12413
bin	0.0002597376	12467
bin	0.000260592	12330
bin	0.0002614464	12225
bin	0.0002623008	12215
bin	0.0002631552	12215
bin	0.0002640096	12143
bin	0.000264864	12011
bin	0.0002657184	12091
bin	0.0002665728	12219
bin	0.0002674272	12163
bin	0.0002682816	12021
bin	0.000269136	11968
bin	0.0002699904	11980
bin	0.0002708448	12058
bin	0.0002716992	11875
bin	0.0002725536	12052
bin	0.000273408	11903
bin	0.0002742624	11981
bin	0.0002751168	11760
bin	0.0002759712	11809
bin	0.0002768256	11658
bin	0.00027768	11582
bin	0.0002785344	11704
bin	0.0002793888	11704
bin	0.0002802432	11783
bin	0.0002810976	11662
bin	0.000281952	11761
bin	0.0002828064	11875
bin	0.0002836608	11698
bin	0.0002845152	11735
bin	0.0002853696	11743
bin	0.000286224	11611
bin	0.0002870784	11597
bin	0.0002879328	11574
bin	0.0002887872	11545
bin	0.0002896416	11515
bin	0.000290496	11625
bin	0.0002913504	11573
bin	0.0002922048	11672
bin	0.0002930592	11524
bin	0.0002939136	11543
bin	0.000294768	11451
bin	0.0002956224	11336
bin	0.0002964768	11423
bin	0.0002973312	11331
bin	0.0002981856	11225
bin	0.00029904	11411
bin	0.0002998944	11387
bin	0.0003007488	11257
bin	0.0003016032	11341
bin	0.0003024576	11206
bin	0.000303312	11395
bin	0.0003041664	11427
bin	0.0003050208	11207
bin	0.0003058752	11187
bin	0.0003067296	11385
bin	0.000307584	11253
bin	0.0003084384	11120
bin	0.0003092928	11292
bin	0.0003101472	11296
bin	0.0003110016	11315
bin	0.000311856	11351
bin	0.0003127104	11388
bin	0.0003135648	11324
bin	0.0003144192	11558
bin	0.0003152736	11306
bin	0.000316128	11364
bin	0.0003169824	11280
bin	0.0003178368	11344
bin	0.0003186912	11292
bin	0.0003195456	11413
bin	0.0003204	11377
bin	0.0003212544	11302
bin	0.0003221088	11278
bin	0.0003229632	11423
bin	0.0003238176	11276
bin	0.000324672	11524
bin	0.0003255264	11313
bin	0.0003263808	11505
bin	0.0003272352	11459
bin	0.0003280896	11330
bin	0.000328944	11255
bin	0.0003297984	11269
bin	0.0003306528	11233
bin	0.0003315072	11325
bin	0.0003323616	11148
bin	0.000333216	11064
bin	0.0003340704	11024
bin	0.0003349248	11062
bin	0.0003357792	10922
bin	0.0003366336	10932
bin	0.000337488	10758
bin	0.0003383424	10826
bin	0.0003391968	10736
bin	0.0003400512	10773
bin	0.0003409056	10564
bin	0.00034176	10519
bin	0.0003426144	10756
bin	0.0003434688	10719
bin	0.0003443232	10693
bin	0.0003451776	10645
bin	0.000346032	10546
bin	0.0003468864	10596
bin	0.0003477408	10507
bin	0.0003485952	10525
bin	0.0003494496	10505
bin	0.000350304	10590
bin	0.0003511584	10409
bin	0.0003520128	10318
bin	0.0003528672	10359
bin	0.0003537216	10310
bin	0.000354576	10312
bin	0.0003554304	10340
bin	0.0003562848	10272
bin	0.0003571392	10381
bin	0.0003579936	10341
bin	0.000358848	10280
bin	0.0003597024	10146
bin	0.0003605568	10166
bin	0.0003614112	10124
bin	0.0003622656	10281
bin	0.00036312	10275
bin	0.0003639744	10080
bin	0.0003648288	10074
bin	0.0003656832	9820
bin	0.0003665376	9916
bin	0.000367392	9613
bin	0.0003682464	9573
bin	0.0003691008	9459
bin	0.0003699552	9523
bin	0.0003708096	9445
bin	0.000371664	9310
bin	0.0003725184	9463
bin	0.0003733728	9211
bin	0.0003742272	9374
bin	0.0003750816	9202
bin	0.000375936	9155
bin	0.0003767904	9086
bin	0.0003776448	9145
bin	0.0003784992	8831
bin	0.0003793536	8865
bin	0.000380208	8875
bin	0.0003810624	8694
bin	0.0003819168	8586
bin	0.0003827712	8554
bin	0.0003836256	8661
bin	0.00038448	8496
bin	0.0003853344	8487
bin	0.0003861888	8263
bin	0.0003870432	8377
bin	0.0003878976	8060
bin	0.000388752	8045
bin	0.0003896064	8010
bin	0.0003904608	7845
bin	0.0003913152	7799
bin	0.0003921696	7776
bin	0.000393024	7495
bin	0.0003938784	7475
bin	0.0003947328	7244
bin	0.0003955872	7346
bin	0.0003964416	7209
bin	0.000397296	7117
bin	0.0003981504	7130
bin	0.0003990048	6887
bin	0.0003998592	6735
bin	0.0004007136	6723
bin	0.000401568	6735
bin	0.0004024224	6534
bin	0.0004032768	6443
bin	0.0004041312	6409
bin	0.0004049856	6323
bin	0.00040584	6386
bin	0.0004066944	6156
bin	0.0004075488	6183
bin	0.0004084032	6058
bin	0.0004092576	6031
bin	0.000410112	5978
bin	0.0004109664	5737
bin	0.0004118208	5672
bin	0.0004126752	5711
bin	0.0004135296	5624
bin	0.000414384	5493
bin	0.0004152384	5287
bin	0.0004160928	5292
bin	0.0004169472	5303
bin	0.0004178016	5110
bin	0.000418656	4928
bin	0.0004195104	4862
bin	0.0004203648	4892
bin	0.0004212192	4923
bin	0.0004220736	4899
bin	0.000422928	4724
bin	0.0004237824	4581
bin	0.0004246368	4521
bin	0.0004254912	4666
bin	0.0004263456	4480
bin	0.0004272	232131
