version 2
run Butterfly-135-20120709-13:52:11-24179
attr alg 3
attr buf 8
attr configname Butterfly
attr datetime 20120709-13:52:11
attr delta 2
attr experiment Butterfly
attr ext false
attr inifile altro.ini
attr iterationvars "$buf=8, $ext=false, $ofedge=1, $delta=2, $alg=3"
attr iterationvars2 "$buf=8, $ext=false, $ofedge=1, $delta=2, $alg=3, $repetition=0"
attr measurement "$buf=8, $ext=false, $ofedge=1, $delta=2, $alg=3"
attr network Torus3d_bub
attr ofedge 1
attr processid 24179
attr repetition 0
attr replication #0
attr resultdir altro-results
attr runnumber 135
attr seedset 135

scalar . 	alg 	3
scalar . 	buf 	8
scalar . 	delta 	2
scalar . 	ofedge 	1
scalar Torus3d_bub.timer 	#endTime 	0.000846768332033
scalar Torus3d_bub.timer 	#totalHops 	35173049
scalar Torus3d_bub.timer 	#totalPacks 	6291456
scalar Torus3d_bub.timer 	#totalDerouted 	4153471
scalar Torus3d_bub.timer 	#totalOutFlanked 	3886849
scalar Torus3d_bub.timer 	#totalCQRed 	266622
scalar Torus3d_bub.timer 	#LB 	0.000786432
scalar Torus3d_bub.timer 	#ratio 	0.92874517178962
statistic Torus3d_bub.timer 	"Hop Times"
field count 6291456
field mean 3.9972213610842e-05
field stddev 4.7754481392609e-05
field sum 251.48342315522
field sqrsum 0.024399952425068
field min 4.28999932e-07
field max 0.000509530665721
bin	-INF	0
bin	0	0
bin	7.12e-08	0
bin	1.424e-07	0
bin	2.136e-07	0
bin	2.848e-07	0
bin	3.56e-07	0
bin	4.272e-07	2075
bin	4.984e-07	4186
bin	5.696e-07	2172
bin	6.408e-07	2328
bin	7.12e-07	7369
bin	7.832e-07	1321
bin	8.544e-07	4549
bin	9.256e-07	5597
bin	9.968e-07	9687
bin	1.068e-06	5730
bin	1.1392e-06	5915
bin	1.2104e-06	7050
bin	1.2816e-06	10184
bin	1.3528e-06	2278
bin	1.424e-06	3623
bin	1.4952e-06	11535
bin	1.5664e-06	7445
bin	1.6376e-06	5848
bin	1.7088e-06	7218
bin	1.78e-06	11462
bin	1.8512e-06	11058
bin	1.9224e-06	7901
bin	1.9936e-06	8921
bin	2.0648e-06	13991
bin	2.136e-06	7340
bin	2.2072e-06	6892
bin	2.2784e-06	16820
bin	2.3496e-06	14382
bin	2.4208e-06	9087
bin	2.492e-06	9052
bin	2.5632e-06	12423
bin	2.6344e-06	8952
bin	2.7056e-06	6861
bin	2.7768e-06	8792
bin	2.848e-06	13825
bin	2.9192e-06	6793
bin	2.9904e-06	6367
bin	3.0616e-06	12519
bin	3.1328e-06	8477
bin	3.204e-06	8553
bin	3.2752e-06	6737
bin	3.3464e-06	10775
bin	3.4176e-06	8809
bin	3.4888e-06	7092
bin	3.56e-06	5137
bin	3.6312e-06	13579
bin	3.7024e-06	11722
bin	3.7736e-06	7456
bin	3.8448e-06	13685
bin	3.916e-06	5924
bin	3.9872e-06	5859
bin	4.0584e-06	5982
bin	4.1296e-06	9781
bin	4.2008e-06	9896
bin	4.272e-06	6033
bin	4.3432e-06	5840
bin	4.4144e-06	10285
bin	4.4856e-06	6283
bin	4.5568e-06	6219
bin	4.628e-06	10053
bin	4.6992e-06	6396
bin	4.7704e-06	6310
bin	4.8416e-06	6337
bin	4.9128e-06	10360
bin	4.984e-06	6129
bin	5.0552e-06	6233
bin	5.1264e-06	6243
bin	5.1976e-06	10695
bin	5.2688e-06	6686
bin	5.34e-06	6621
bin	5.4112e-06	10672
bin	5.4824e-06	6593
bin	5.5536e-06	6936
bin	5.6248e-06	6833
bin	5.696e-06	10939
bin	5.7672e-06	7111
bin	5.8384e-06	6952
bin	5.9096e-06	7175
bin	5.9808e-06	11999
bin	6.052e-06	7353
bin	6.1232e-06	7180
bin	6.1944e-06	11561
bin	6.2656e-06	7623
bin	6.3368e-06	7660
bin	6.408e-06	7727
bin	6.4792e-06	12814
bin	6.5504e-06	7915
bin	6.6216e-06	8263
bin	6.6928e-06	8202
bin	6.764e-06	12225
bin	6.8352e-06	7908
bin	6.9064e-06	7773
bin	6.9776e-06	11466
bin	7.0488e-06	7465
bin	7.12e-06	7184
bin	7.1912e-06	7390
bin	7.2624e-06	11246
bin	7.3336e-06	7119
bin	7.4048e-06	7149
bin	7.476e-06	7185
bin	7.5472e-06	11140
bin	7.6184e-06	7018
bin	7.6896e-06	7238
bin	7.7608e-06	11020
bin	7.832e-06	7102
bin	7.9032e-06	7130
bin	7.9744e-06	7419
bin	8.0456e-06	7261
bin	8.1168e-06	7207
bin	8.188e-06	7350
bin	8.2592e-06	7278
bin	8.3304e-06	11320
bin	8.4016e-06	7329
bin	8.4728e-06	7200
bin	8.544e-06	11457
bin	8.6152e-06	7301
bin	8.6864e-06	7489
bin	8.7576e-06	7684
bin	8.8288e-06	9733
bin	8.9e-06	7526
bin	8.9712e-06	7643
bin	9.0424e-06	7456
bin	9.1136e-06	11556
bin	9.1848e-06	7612
bin	9.256e-06	7572
bin	9.3272e-06	7579
bin	9.3984e-06	7647
bin	9.4696e-06	7664
bin	9.5408e-06	7678
bin	9.612e-06	9777
bin	9.6832e-06	7680
bin	9.7544e-06	7467
bin	9.8256e-06	7547
bin	9.8968e-06	12623
bin	9.968e-06	7592
bin	1.00392e-05	7710
bin	1.01104e-05	9692
bin	1.01816e-05	8879
bin	1.02528e-05	7792
bin	1.0324e-05	7805
bin	1.03952e-05	7726
bin	1.04664e-05	8739
bin	1.05376e-05	7728
bin	1.06088e-05	7952
bin	1.068e-05	10675
bin	1.07512e-05	7940
bin	1.08224e-05	9025
bin	1.08936e-05	12100
bin	1.09648e-05	8878
bin	1.1036e-05	7935
bin	1.11072e-05	8056
bin	1.11784e-05	9932
bin	1.12496e-05	9005
bin	1.13208e-05	8084
bin	1.1392e-05	9179
bin	1.14632e-05	12134
bin	1.15344e-05	8141
bin	1.16056e-05	7934
bin	1.16768e-05	10200
bin	1.1748e-05	8125
bin	1.18192e-05	8365
bin	1.18904e-05	8341
bin	1.19616e-05	12218
bin	1.20328e-05	8307
bin	1.2104e-05	8236
bin	1.21752e-05	8229
bin	1.22464e-05	10261
bin	1.23176e-05	8337
bin	1.23888e-05	8331
bin	1.246e-05	12427
bin	1.25312e-05	8337
bin	1.26024e-05	8411
bin	1.26736e-05	8385
bin	1.27448e-05	10362
bin	1.2816e-05	8521
bin	1.28872e-05	8339
bin	1.29584e-05	8576
bin	1.30296e-05	8442
bin	1.31008e-05	8417
bin	1.3172e-05	8522
bin	1.32432e-05	8419
bin	1.33144e-05	8425
bin	1.33856e-05	8471
bin	1.34568e-05	8386
bin	1.3528e-05	8404
bin	1.35992e-05	8655
bin	1.36704e-05	8382
bin	1.37416e-05	8477
bin	1.38128e-05	8491
bin	1.3884e-05	8634
bin	1.39552e-05	8524
bin	1.40264e-05	8761
bin	1.40976e-05	8617
bin	1.41688e-05	8460
bin	1.424e-05	8639
bin	1.43112e-05	8747
bin	1.43824e-05	8741
bin	1.44536e-05	8822
bin	1.45248e-05	8755
bin	1.4596e-05	8830
bin	1.46672e-05	8876
bin	1.47384e-05	8713
bin	1.48096e-05	8970
bin	1.48808e-05	8846
bin	1.4952e-05	8901
bin	1.50232e-05	9012
bin	1.50944e-05	8878
bin	1.51656e-05	8977
bin	1.52368e-05	8906
bin	1.5308e-05	8863
bin	1.53792e-05	8889
bin	1.54504e-05	8900
bin	1.55216e-05	9057
bin	1.55928e-05	9029
bin	1.5664e-05	8930
bin	1.57352e-05	8947
bin	1.58064e-05	9157
bin	1.58776e-05	9077
bin	1.59488e-05	9146
bin	1.602e-05	9011
bin	1.60912e-05	9253
bin	1.61624e-05	9033
bin	1.62336e-05	9190
bin	1.63048e-05	9114
bin	1.6376e-05	9204
bin	1.64472e-05	9268
bin	1.65184e-05	9292
bin	1.65896e-05	9213
bin	1.66608e-05	9186
bin	1.6732e-05	9234
bin	1.68032e-05	9135
bin	1.68744e-05	9399
bin	1.69456e-05	9130
bin	1.70168e-05	9231
bin	1.7088e-05	9198
bin	1.71592e-05	9203
bin	1.72304e-05	9177
bin	1.73016e-05	9330
bin	1.73728e-05	9530
bin	1.7444e-05	9332
bin	1.75152e-05	9183
bin	1.75864e-05	9052
bin	1.76576e-05	9363
bin	1.77288e-05	9277
bin	1.78e-05	9231
bin	1.78712e-05	9318
bin	1.79424e-05	9122
bin	1.80136e-05	9258
bin	1.80848e-05	9108
bin	1.8156e-05	9335
bin	1.82272e-05	9163
bin	1.82984e-05	9336
bin	1.83696e-05	9329
bin	1.84408e-05	9222
bin	1.8512e-05	9359
bin	1.85832e-05	9317
bin	1.86544e-05	9367
bin	1.87256e-05	9335
bin	1.87968e-05	9441
bin	1.8868e-05	9380
bin	1.89392e-05	9358
bin	1.90104e-05	9091
bin	1.90816e-05	9543
bin	1.91528e-05	9339
bin	1.9224e-05	9208
bin	1.92952e-05	9248
bin	1.93664e-05	9201
bin	1.94376e-05	9303
bin	1.95088e-05	9254
bin	1.958e-05	9353
bin	1.96512e-05	9221
bin	1.97224e-05	9510
bin	1.97936e-05	9128
bin	1.98648e-05	9454
bin	1.9936e-05	9263
bin	2.00072e-05	9306
bin	2.00784e-05	9375
bin	2.01496e-05	9119
bin	2.02208e-05	9332
bin	2.0292e-05	9223
bin	2.03632e-05	9293
bin	2.04344e-05	9240
bin	2.05056e-05	9486
bin	2.05768e-05	9254
bin	2.0648e-05	9420
bin	2.07192e-05	9287
bin	2.07904e-05	9290
bin	2.08616e-05	9373
bin	2.09328e-05	9253
bin	2.1004e-05	9190
bin	2.10752e-05	9141
bin	2.11464e-05	9096
bin	2.12176e-05	9112
bin	2.12888e-05	9276
bin	2.136e-05	9171
bin	2.14312e-05	9286
bin	2.15024e-05	9131
bin	2.15736e-05	9095
bin	2.16448e-05	9151
bin	2.1716e-05	9252
bin	2.17872e-05	9209
bin	2.18584e-05	8987
bin	2.19296e-05	9276
bin	2.20008e-05	9142
bin	2.2072e-05	9328
bin	2.21432e-05	8989
bin	2.22144e-05	9286
bin	2.22856e-05	9032
bin	2.23568e-05	9030
bin	2.2428e-05	9258
bin	2.24992e-05	9095
bin	2.25704e-05	9281
bin	2.26416e-05	9013
bin	2.27128e-05	9271
bin	2.2784e-05	9028
bin	2.28552e-05	9123
bin	2.29264e-05	8827
bin	2.29976e-05	9235
bin	2.30688e-05	9016
bin	2.314e-05	8888
bin	2.32112e-05	8899
bin	2.32824e-05	8866
bin	2.33536e-05	8781
bin	2.34248e-05	8823
bin	2.3496e-05	8904
bin	2.35672e-05	8799
bin	2.36384e-05	9045
bin	2.37096e-05	8615
bin	2.37808e-05	9007
bin	2.3852e-05	8823
bin	2.39232e-05	8727
bin	2.39944e-05	8733
bin	2.40656e-05	8625
bin	2.41368e-05	8856
bin	2.4208e-05	8773
bin	2.42792e-05	8728
bin	2.43504e-05	8860
bin	2.44216e-05	8894
bin	2.44928e-05	8432
bin	2.4564e-05	8793
bin	2.46352e-05	8586
bin	2.47064e-05	8717
bin	2.47776e-05	8488
bin	2.48488e-05	8630
bin	2.492e-05	8494
bin	2.49912e-05	8512
bin	2.50624e-05	8605
bin	2.51336e-05	8525
bin	2.52048e-05	8696
bin	2.5276e-05	8272
bin	2.53472e-05	8617
bin	2.54184e-05	8315
bin	2.54896e-05	8468
bin	2.55608e-05	8417
bin	2.5632e-05	8422
bin	2.57032e-05	8173
bin	2.57744e-05	8329
bin	2.58456e-05	8112
bin	2.59168e-05	8287
bin	2.5988e-05	8452
bin	2.60592e-05	8138
bin	2.61304e-05	8452
bin	2.62016e-05	8240
bin	2.62728e-05	8575
bin	2.6344e-05	8341
bin	2.64152e-05	8497
bin	2.64864e-05	8307
bin	2.65576e-05	8480
bin	2.66288e-05	8268
bin	2.67e-05	8402
bin	2.67712e-05	8344
bin	2.68424e-05	8097
bin	2.69136e-05	8252
bin	2.69848e-05	8201
bin	2.7056e-05	8231
bin	2.71272e-05	8021
bin	2.71984e-05	8037
bin	2.72696e-05	8052
bin	2.73408e-05	8320
bin	2.7412e-05	8067
bin	2.74832e-05	8151
bin	2.75544e-05	8372
bin	2.76256e-05	7964
bin	2.76968e-05	8235
bin	2.7768e-05	8068
bin	2.78392e-05	8045
bin	2.79104e-05	8008
bin	2.79816e-05	8080
bin	2.80528e-05	7989
bin	2.8124e-05	8076
bin	2.81952e-05	7822
bin	2.82664e-05	7803
bin	2.83376e-05	8029
bin	2.84088e-05	7576
bin	2.848e-05	7962
bin	2.85512e-05	7845
bin	2.86224e-05	7796
bin	2.86936e-05	7683
bin	2.87648e-05	7923
bin	2.8836e-05	7748
bin	2.89072e-05	7708
bin	2.89784e-05	7617
bin	2.90496e-05	7646
bin	2.91208e-05	7778
bin	2.9192e-05	7476
bin	2.92632e-05	7634
bin	2.93344e-05	7452
bin	2.94056e-05	7659
bin	2.94768e-05	7334
bin	2.9548e-05	7531
bin	2.96192e-05	7452
bin	2.96904e-05	7497
bin	2.97616e-05	7415
bin	2.98328e-05	7670
bin	2.9904e-05	7514
bin	2.99752e-05	7190
bin	3.00464e-05	7463
bin	3.01176e-05	7422
bin	3.01888e-05	7368
bin	3.026e-05	7262
bin	3.03312e-05	7377
bin	3.04024e-05	7139
bin	3.04736e-05	7134
bin	3.05448e-05	7049
bin	3.0616e-05	7206
bin	3.06872e-05	7342
bin	3.07584e-05	6941
bin	3.08296e-05	7397
bin	3.09008e-05	7182
bin	3.0972e-05	7077
bin	3.10432e-05	6843
bin	3.11144e-05	7044
bin	3.11856e-05	6950
bin	3.12568e-05	7015
bin	3.1328e-05	6781
bin	3.13992e-05	6875
bin	3.14704e-05	6873
bin	3.15416e-05	6723
bin	3.16128e-05	6844
bin	3.1684e-05	6871
bin	3.17552e-05	6789
bin	3.18264e-05	6698
bin	3.18976e-05	6760
bin	3.19688e-05	6655
bin	3.204e-05	6923
bin	3.21112e-05	6643
bin	3.21824e-05	6888
bin	3.22536e-05	6755
bin	3.23248e-05	6552
bin	3.2396e-05	6752
bin	3.24672e-05	6536
bin	3.25384e-05	6738
bin	3.26096e-05	6380
bin	3.26808e-05	6633
bin	3.2752e-05	6374
bin	3.28232e-05	6625
bin	3.28944e-05	6426
bin	3.29656e-05	6695
bin	3.30368e-05	6723
bin	3.3108e-05	6385
bin	3.31792e-05	6582
bin	3.32504e-05	6515
bin	3.33216e-05	6490
bin	3.33928e-05	6350
bin	3.3464e-05	6673
bin	3.35352e-05	6224
bin	3.36064e-05	6609
bin	3.36776e-05	6231
bin	3.37488e-05	6490
bin	3.382e-05	6538
bin	3.38912e-05	6069
bin	3.39624e-05	6298
bin	3.40336e-05	6151
bin	3.41048e-05	6315
bin	3.4176e-05	6073
bin	3.42472e-05	6230
bin	3.43184e-05	6055
bin	3.43896e-05	6233
bin	3.44608e-05	5960
bin	3.4532e-05	6256
bin	3.46032e-05	6410
bin	3.46744e-05	5849
bin	3.47456e-05	6182
bin	3.48168e-05	6090
bin	3.4888e-05	6223
bin	3.49592e-05	6016
bin	3.50304e-05	6137
bin	3.51016e-05	5980
bin	3.51728e-05	6071
bin	3.5244e-05	5856
bin	3.53152e-05	6040
bin	3.53864e-05	6119
bin	3.54576e-05	5674
bin	3.55288e-05	6006
bin	3.56e-05	2211992
statistic Torus3d_bub.timer 	"Life Times"
field count 6291456
field mean 0.00015514212006961
field stddev 9.4117094063851e-05
field sum 976.06982216464
field sqrsum 0.20715942229115
field min 5.2e-07
field max 0.00060530566592
bin	-INF	0
bin	0	8379
bin	8.544e-07	21593
bin	1.7088e-06	22150
bin	2.5632e-06	22572
bin	3.4176e-06	24135
bin	4.272e-06	27784
bin	5.1264e-06	23955
bin	5.9808e-06	28261
bin	6.8352e-06	26594
bin	7.6896e-06	23889
bin	8.544e-06	25645
bin	9.3984e-06	29933
bin	1.02528e-05	28610
bin	1.11072e-05	36039
bin	1.19616e-05	32294
bin	1.2816e-05	14090
bin	1.36704e-05	15241
bin	1.45248e-05	18558
bin	1.53792e-05	10412
bin	1.62336e-05	9583
bin	1.7088e-05	9715
bin	1.79424e-05	10015
bin	1.87968e-05	10411
bin	1.96512e-05	12838
bin	2.05056e-05	11834
bin	2.136e-05	13792
bin	2.22144e-05	13152
bin	2.30688e-05	12225
bin	2.39232e-05	13343
bin	2.47776e-05	13667
bin	2.5632e-05	16190
bin	2.64864e-05	16184
bin	2.73408e-05	14581
bin	2.81952e-05	13915
bin	2.90496e-05	14167
bin	2.9904e-05	13765
bin	3.07584e-05	13672
bin	3.16128e-05	14217
bin	3.24672e-05	14562
bin	3.33216e-05	14578
bin	3.4176e-05	14828
bin	3.50304e-05	16076
bin	3.58848e-05	15825
bin	3.67392e-05	15869
bin	3.75936e-05	16174
bin	3.8448e-05	17037
bin	3.93024e-05	16491
bin	4.01568e-05	16342
bin	4.10112e-05	17199
bin	4.18656e-05	17225
bin	4.272e-05	16779
bin	4.35744e-05	16509
bin	4.44288e-05	17118
bin	4.52832e-05	16584
bin	4.61376e-05	16271
bin	4.6992e-05	16715
bin	4.78464e-05	17005
bin	4.87008e-05	16112
bin	4.95552e-05	16358
bin	5.04096e-05	16701
bin	5.1264e-05	16789
bin	5.21184e-05	16550
bin	5.29728e-05	16564
bin	5.38272e-05	16800
bin	5.46816e-05	16410
bin	5.5536e-05	16066
bin	5.63904e-05	16543
bin	5.72448e-05	16751
bin	5.80992e-05	16393
bin	5.89536e-05	16124
bin	5.9808e-05	16474
bin	6.06624e-05	16128
bin	6.15168e-05	16085
bin	6.23712e-05	16229
bin	6.32256e-05	16398
bin	6.408e-05	16249
bin	6.49344e-05	16332
bin	6.57888e-05	16349
bin	6.66432e-05	16341
bin	6.74976e-05	15880
bin	6.8352e-05	16030
bin	6.92064e-05	15902
bin	7.00608e-05	16084
bin	7.09152e-05	15799
bin	7.17696e-05	15829
bin	7.2624e-05	15955
bin	7.34784e-05	15999
bin	7.43328e-05	16080
bin	7.51872e-05	16252
bin	7.60416e-05	16407
bin	7.6896e-05	16498
bin	7.77504e-05	16303
bin	7.86048e-05	16384
bin	7.94592e-05	16607
bin	8.03136e-05	16599
bin	8.1168e-05	16738
bin	8.20224e-05	16793
bin	8.28768e-05	16945
bin	8.37312e-05	16687
bin	8.45856e-05	17056
bin	8.544e-05	17043
bin	8.62944e-05	17067
bin	8.71488e-05	16930
bin	8.80032e-05	16988
bin	8.88576e-05	17326
bin	8.9712e-05	17265
bin	9.05664e-05	17387
bin	9.14208e-05	17398
bin	9.22752e-05	17218
bin	9.31296e-05	17467
bin	9.3984e-05	17497
bin	9.48384e-05	17868
bin	9.56928e-05	17865
bin	9.65472e-05	17680
bin	9.74016e-05	17824
bin	9.8256e-05	17751
bin	9.91104e-05	17648
bin	9.99648e-05	18039
bin	0.0001008192	18209
bin	0.0001016736	17754
bin	0.000102528	18150
bin	0.0001033824	18296
bin	0.0001042368	18395
bin	0.0001050912	17993
bin	0.0001059456	17941
bin	0.0001068	18278
bin	0.0001076544	18281
bin	0.0001085088	18370
bin	0.0001093632	18471
bin	0.0001102176	18734
bin	0.000111072	18841
bin	0.0001119264	18658
bin	0.0001127808	18688
bin	0.0001136352	18945
bin	0.0001144896	18716
bin	0.000115344	18609
bin	0.0001161984	18775
bin	0.0001170528	18779
bin	0.0001179072	18810
bin	0.0001187616	19211
bin	0.000119616	19161
bin	0.0001204704	19491
bin	0.0001213248	19373
bin	0.0001221792	19445
bin	0.0001230336	19422
bin	0.000123888	19387
bin	0.0001247424	19534
bin	0.0001255968	19659
bin	0.0001264512	19639
bin	0.0001273056	19719
bin	0.00012816	19723
bin	0.0001290144	19733
bin	0.0001298688	19955
bin	0.0001307232	19614
bin	0.0001315776	20072
bin	0.000132432	19820
bin	0.0001332864	19668
bin	0.0001341408	19799
bin	0.0001349952	19930
bin	0.0001358496	19889
bin	0.000136704	19684
bin	0.0001375584	19574
bin	0.0001384128	19659
bin	0.0001392672	19872
bin	0.0001401216	19521
bin	0.000140976	19951
bin	0.0001418304	19659
bin	0.0001426848	19900
bin	0.0001435392	19732
bin	0.0001443936	19694
bin	0.000145248	19734
bin	0.0001461024	20108
bin	0.0001469568	19819
bin	0.0001478112	19566
bin	0.0001486656	19495
bin	0.00014952	19635
bin	0.0001503744	19762
bin	0.0001512288	19689
bin	0.0001520832	19530
bin	0.0001529376	19503
bin	0.000153792	19332
bin	0.0001546464	19471
bin	0.0001555008	19726
bin	0.0001563552	19547
bin	0.0001572096	19474
bin	0.000158064	19193
bin	0.0001589184	19484
bin	0.0001597728	19374
bin	0.0001606272	19264
bin	0.0001614816	19339
bin	0.000162336	19634
bin	0.0001631904	19310
bin	0.0001640448	19318
bin	0.0001648992	19765
bin	0.0001657536	19752
bin	0.000166608	19831
bin	0.0001674624	19394
bin	0.0001683168	19546
bin	0.0001691712	19488
bin	0.0001700256	19693
bin	0.00017088	19357
bin	0.0001717344	19364
bin	0.0001725888	19233
bin	0.0001734432	19409
bin	0.0001742976	19395
bin	0.000175152	19283
bin	0.0001760064	19272
bin	0.0001768608	19289
bin	0.0001777152	19265
bin	0.0001785696	19427
bin	0.000179424	19484
bin	0.0001802784	19554
bin	0.0001811328	19271
bin	0.0001819872	19246
bin	0.0001828416	19155
bin	0.000183696	19269
bin	0.0001845504	19285
bin	0.0001854048	19160
bin	0.0001862592	18926
bin	0.0001871136	18840
bin	0.000187968	18700
bin	0.0001888224	18672
bin	0.0001896768	18606
bin	0.0001905312	18514
bin	0.0001913856	18304
bin	0.00019224	18439
bin	0.0001930944	18470
bin	0.0001939488	18343
bin	0.0001948032	18266
bin	0.0001956576	18296
bin	0.000196512	18229
bin	0.0001973664	18287
bin	0.0001982208	18194
bin	0.0001990752	18043
bin	0.0001999296	18063
bin	0.000200784	17942
bin	0.0002016384	17974
bin	0.0002024928	18021
bin	0.0002033472	17824
bin	0.0002042016	17854
bin	0.000205056	17853
bin	0.0002059104	17738
bin	0.0002067648	17524
bin	0.0002076192	17554
bin	0.0002084736	17582
bin	0.000209328	17557
bin	0.0002101824	17472
bin	0.0002110368	17286
bin	0.0002118912	17311
bin	0.0002127456	17454
bin	0.0002136	17238
bin	0.0002144544	17149
bin	0.0002153088	17501
bin	0.0002161632	17210
bin	0.0002170176	17452
bin	0.000217872	17124
bin	0.0002187264	16905
bin	0.0002195808	16966
bin	0.0002204352	16787
bin	0.0002212896	16659
bin	0.000222144	16525
bin	0.0002229984	16412
bin	0.0002238528	16573
bin	0.0002247072	16659
bin	0.0002255616	16184
bin	0.000226416	16295
bin	0.0002272704	16003
bin	0.0002281248	15976
bin	0.0002289792	15954
bin	0.0002298336	15745
bin	0.000230688	15774
bin	0.0002315424	15652
bin	0.0002323968	15481
bin	0.0002332512	15377
bin	0.0002341056	15089
bin	0.00023496	15199
bin	0.0002358144	15121
bin	0.0002366688	14863
bin	0.0002375232	14815
bin	0.0002383776	14819
bin	0.000239232	14503
bin	0.0002400864	14431
bin	0.0002409408	14270
bin	0.0002417952	14211
bin	0.0002426496	14227
bin	0.000243504	13918
bin	0.0002443584	14060
bin	0.0002452128	13742
bin	0.0002460672	13711
bin	0.0002469216	13654
bin	0.000247776	13523
bin	0.0002486304	13307
bin	0.0002494848	13495
bin	0.0002503392	13453
bin	0.0002511936	13252
bin	0.000252048	13204
bin	0.0002529024	13188
bin	0.0002537568	12940
bin	0.0002546112	12984
bin	0.0002554656	13101
bin	0.00025632	13035
bin	0.0002571744	12700
bin	0.0002580288	12802
bin	0.0002588832	12731
bin	0.0002597376	12725
bin	0.000260592	12649
bin	0.0002614464	12528
bin	0.0002623008	12604
bin	0.0002631552	12487
bin	0.0002640096	12437
bin	0.000264864	12458
bin	0.0002657184	12469
bin	0.0002665728	12157
bin	0.0002674272	12285
bin	0.0002682816	12053
bin	0.000269136	11929
bin	0.0002699904	12036
bin	0.0002708448	11818
bin	0.0002716992	11788
bin	0.0002725536	11852
bin	0.000273408	11752
bin	0.0002742624	11591
bin	0.0002751168	11421
bin	0.0002759712	11455
bin	0.0002768256	11368
bin	0.00027768	11106
bin	0.0002785344	11009
bin	0.0002793888	10897
bin	0.0002802432	10771
bin	0.0002810976	10737
bin	0.000281952	10202
bin	0.0002828064	10427
bin	0.0002836608	10410
bin	0.0002845152	10085
bin	0.0002853696	9995
bin	0.000286224	10088
bin	0.0002870784	9805
bin	0.0002879328	9710
bin	0.0002887872	9619
bin	0.0002896416	9695
bin	0.000290496	9470
bin	0.0002913504	9486
bin	0.0002922048	9614
bin	0.0002930592	9284
bin	0.0002939136	9215
bin	0.000294768	9066
bin	0.0002956224	8964
bin	0.0002964768	8853
bin	0.0002973312	8689
bin	0.0002981856	8485
bin	0.00029904	8353
bin	0.0002998944	8333
bin	0.0003007488	8193
bin	0.0003016032	8011
bin	0.0003024576	7947
bin	0.000303312	7888
bin	0.0003041664	7814
bin	0.0003050208	7705
bin	0.0003058752	7508
bin	0.0003067296	7399
bin	0.000307584	7314
bin	0.0003084384	7072
bin	0.0003092928	6844
bin	0.0003101472	6722
bin	0.0003110016	6618
bin	0.000311856	6572
bin	0.0003127104	6457
bin	0.0003135648	6360
bin	0.0003144192	6283
bin	0.0003152736	5941
bin	0.000316128	6037
bin	0.0003169824	5893
bin	0.0003178368	5774
bin	0.0003186912	5618
bin	0.0003195456	5637
bin	0.0003204	5476
bin	0.0003212544	5351
bin	0.0003221088	5436
bin	0.0003229632	5375
bin	0.0003238176	5444
bin	0.000324672	5179
bin	0.0003255264	5130
bin	0.0003263808	5121
bin	0.0003272352	4984
bin	0.0003280896	4968
bin	0.000328944	4943
bin	0.0003297984	4716
bin	0.0003306528	4728
bin	0.0003315072	4593
bin	0.0003323616	4618
bin	0.000333216	4532
bin	0.0003340704	4373
bin	0.0003349248	4336
bin	0.0003357792	4317
bin	0.0003366336	4244
bin	0.000337488	4160
bin	0.0003383424	4150
bin	0.0003391968	3964
bin	0.0003400512	3883
bin	0.0003409056	3917
bin	0.00034176	3802
bin	0.0003426144	3723
bin	0.0003434688	3732
bin	0.0003443232	3526
bin	0.0003451776	3580
bin	0.000346032	3537
bin	0.0003468864	3498
bin	0.0003477408	3456
bin	0.0003485952	3371
bin	0.0003494496	3334
bin	0.000350304	3271
bin	0.0003511584	3142
bin	0.0003520128	3138
bin	0.0003528672	3121
bin	0.0003537216	3159
bin	0.000354576	2966
bin	0.0003554304	3000
bin	0.0003562848	2931
bin	0.0003571392	2900
bin	0.0003579936	2880
bin	0.000358848	2770
bin	0.0003597024	2752
bin	0.0003605568	2584
bin	0.0003614112	2605
bin	0.0003622656	2573
bin	0.00036312	2585
bin	0.0003639744	2481
bin	0.0003648288	2463
bin	0.0003656832	2352
bin	0.0003665376	2322
bin	0.000367392	2235
bin	0.0003682464	2245
bin	0.0003691008	2100
bin	0.0003699552	2077
bin	0.0003708096	1996
bin	0.000371664	2040
bin	0.0003725184	1860
bin	0.0003733728	1832
bin	0.0003742272	1793
bin	0.0003750816	1717
bin	0.000375936	1665
bin	0.0003767904	1610
bin	0.0003776448	1552
bin	0.0003784992	1572
bin	0.0003793536	1528
bin	0.000380208	1402
bin	0.0003810624	1408
bin	0.0003819168	1394
bin	0.0003827712	1334
bin	0.0003836256	1258
bin	0.00038448	1212
bin	0.0003853344	1193
bin	0.0003861888	1136
bin	0.0003870432	1104
bin	0.0003878976	1014
bin	0.000388752	1031
bin	0.0003896064	974
bin	0.0003904608	996
bin	0.0003913152	932
bin	0.0003921696	902
bin	0.000393024	925
bin	0.0003938784	822
bin	0.0003947328	779
bin	0.0003955872	735
bin	0.0003964416	741
bin	0.000397296	726
bin	0.0003981504	721
bin	0.0003990048	706
bin	0.0003998592	701
bin	0.0004007136	612
bin	0.000401568	601
bin	0.0004024224	578
bin	0.0004032768	583
bin	0.0004041312	617
bin	0.0004049856	614
bin	0.00040584	539
bin	0.0004066944	542
bin	0.0004075488	499
bin	0.0004084032	518
bin	0.0004092576	486
bin	0.000410112	445
bin	0.0004109664	464
bin	0.0004118208	419
bin	0.0004126752	384
bin	0.0004135296	395
bin	0.000414384	372
bin	0.0004152384	395
bin	0.0004160928	376
bin	0.0004169472	373
bin	0.0004178016	337
bin	0.000418656	351
bin	0.0004195104	338
bin	0.0004203648	314
bin	0.0004212192	327
bin	0.0004220736	335
bin	0.000422928	303
bin	0.0004237824	289
bin	0.0004246368	297
bin	0.0004254912	286
bin	0.0004263456	292
bin	0.0004272	8693
