version 2
run Permutation-13-20120710-20:37:49-28070
attr alg 1
attr buf 8
attr configname Permutation
attr datetime 20120710-20:37:49
attr delta 0.8
attr experiment Permutation
attr ext true
attr inifile altro.ini
attr iterationvars "$buf=8, $ext=true, $ofedge=1, $delta=0.8, $alg=1"
attr iterationvars2 "$buf=8, $ext=true, $ofedge=1, $delta=0.8, $alg=1, $repetition=0"
attr measurement "$buf=8, $ext=true, $ofedge=1, $delta=0.8, $alg=1"
attr network Torus3d_bub
attr ofedge 1
attr processid 28070
attr repetition 0
attr replication #0
attr resultdir altro-results
attr runnumber 13
attr seedset 13

scalar . 	alg 	1
scalar . 	buf 	8
scalar . 	delta 	0.8
scalar . 	ofedge 	1
scalar Torus3d_bub.timer 	#endTime 	0.003817733661093
scalar Torus3d_bub.timer 	#totalHops 	85258084
scalar Torus3d_bub.timer 	#totalPacks 	6291456
scalar Torus3d_bub.timer 	#totalDerouted 	2113434
scalar Torus3d_bub.timer 	#totalOutFlanked 	2113434
scalar Torus3d_bub.timer 	#totalCQRed 	0
scalar Torus3d_bub.timer 	#LB 	0.000786432
scalar Torus3d_bub.timer 	#ratio 	0.20599446420651
statistic Torus3d_bub.timer 	"Hop Times"
field count 6291456
field mean 8.7544877197867e-05
field stddev 9.8083039141871e-05
field sum 550.78474291579
field sqrsum 0.10874395754051
field min 4.03791666e-07
field max 0.00188424899995
bin	-INF	0
bin	0	0
bin	7.12e-08	0
bin	1.424e-07	0
bin	2.136e-07	0
bin	2.848e-07	0
bin	3.56e-07	48
bin	4.272e-07	1441
bin	4.984e-07	4536
bin	5.696e-07	7813
bin	6.408e-07	11742
bin	7.12e-07	16017
bin	7.832e-07	19383
bin	8.544e-07	22269
bin	9.256e-07	24768
bin	9.968e-07	27637
bin	1.068e-06	29941
bin	1.1392e-06	33333
bin	1.2104e-06	37409
bin	1.2816e-06	41486
bin	1.3528e-06	47028
bin	1.424e-06	52880
bin	1.4952e-06	58355
bin	1.5664e-06	63695
bin	1.6376e-06	68198
bin	1.7088e-06	70613
bin	1.78e-06	72061
bin	1.8512e-06	71654
bin	1.9224e-06	70269
bin	1.9936e-06	67566
bin	2.0648e-06	64427
bin	2.136e-06	60816
bin	2.2072e-06	57008
bin	2.2784e-06	52823
bin	2.3496e-06	48481
bin	2.4208e-06	44946
bin	2.492e-06	41401
bin	2.5632e-06	38068
bin	2.6344e-06	34808
bin	2.7056e-06	32032
bin	2.7768e-06	29608
bin	2.848e-06	27318
bin	2.9192e-06	24962
bin	2.9904e-06	23320
bin	3.0616e-06	21564
bin	3.1328e-06	20014
bin	3.204e-06	18673
bin	3.2752e-06	17395
bin	3.3464e-06	16326
bin	3.4176e-06	15170
bin	3.4888e-06	14342
bin	3.56e-06	13490
bin	3.6312e-06	12689
bin	3.7024e-06	11921
bin	3.7736e-06	11272
bin	3.8448e-06	10764
bin	3.916e-06	10197
bin	3.9872e-06	9794
bin	4.0584e-06	9420
bin	4.1296e-06	8816
bin	4.2008e-06	8465
bin	4.272e-06	8026
bin	4.3432e-06	7764
bin	4.4144e-06	7616
bin	4.4856e-06	7091
bin	4.5568e-06	7007
bin	4.628e-06	6591
bin	4.6992e-06	6381
bin	4.7704e-06	6176
bin	4.8416e-06	6009
bin	4.9128e-06	5971
bin	4.984e-06	5697
bin	5.0552e-06	5538
bin	5.1264e-06	5503
bin	5.1976e-06	5363
bin	5.2688e-06	5145
bin	5.34e-06	5013
bin	5.4112e-06	4936
bin	5.4824e-06	4896
bin	5.5536e-06	4675
bin	5.6248e-06	4571
bin	5.696e-06	4565
bin	5.7672e-06	4501
bin	5.8384e-06	4413
bin	5.9096e-06	4186
bin	5.9808e-06	4086
bin	6.052e-06	4056
bin	6.1232e-06	4031
bin	6.1944e-06	3992
bin	6.2656e-06	3885
bin	6.3368e-06	3806
bin	6.408e-06	3783
bin	6.4792e-06	3771
bin	6.5504e-06	3677
bin	6.6216e-06	3618
bin	6.6928e-06	3527
bin	6.764e-06	3410
bin	6.8352e-06	3491
bin	6.9064e-06	3389
bin	6.9776e-06	3343
bin	7.0488e-06	3254
bin	7.12e-06	3136
bin	7.1912e-06	3237
bin	7.2624e-06	3184
bin	7.3336e-06	3130
bin	7.4048e-06	3017
bin	7.476e-06	3148
bin	7.5472e-06	2982
bin	7.6184e-06	2911
bin	7.6896e-06	2891
bin	7.7608e-06	2895
bin	7.832e-06	2875
bin	7.9032e-06	2809
bin	7.9744e-06	2821
bin	8.0456e-06	2755
bin	8.1168e-06	2719
bin	8.188e-06	2748
bin	8.2592e-06	2610
bin	8.3304e-06	2669
bin	8.4016e-06	2651
bin	8.4728e-06	2622
bin	8.544e-06	2616
bin	8.6152e-06	2510
bin	8.6864e-06	2529
bin	8.7576e-06	2576
bin	8.8288e-06	2551
bin	8.9e-06	2489
bin	8.9712e-06	2521
bin	9.0424e-06	2470
bin	9.1136e-06	2392
bin	9.1848e-06	2373
bin	9.256e-06	2310
bin	9.3272e-06	2307
bin	9.3984e-06	2344
bin	9.4696e-06	2308
bin	9.5408e-06	2256
bin	9.612e-06	2223
bin	9.6832e-06	2291
bin	9.7544e-06	2259
bin	9.8256e-06	2193
bin	9.8968e-06	2211
bin	9.968e-06	2144
bin	1.00392e-05	2174
bin	1.01104e-05	2168
bin	1.01816e-05	2131
bin	1.02528e-05	2051
bin	1.0324e-05	2174
bin	1.03952e-05	2074
bin	1.04664e-05	2074
bin	1.05376e-05	2128
bin	1.06088e-05	2047
bin	1.068e-05	2051
bin	1.07512e-05	2085
bin	1.08224e-05	2021
bin	1.08936e-05	2014
bin	1.09648e-05	1996
bin	1.1036e-05	2057
bin	1.11072e-05	2046
bin	1.11784e-05	2038
bin	1.12496e-05	2070
bin	1.13208e-05	2044
bin	1.1392e-05	2000
bin	1.14632e-05	2019
bin	1.15344e-05	1968
bin	1.16056e-05	1935
bin	1.16768e-05	1871
bin	1.1748e-05	1916
bin	1.18192e-05	1935
bin	1.18904e-05	1881
bin	1.19616e-05	1901
bin	1.20328e-05	1903
bin	1.2104e-05	1850
bin	1.21752e-05	1874
bin	1.22464e-05	1962
bin	1.23176e-05	1834
bin	1.23888e-05	1862
bin	1.246e-05	1895
bin	1.25312e-05	1857
bin	1.26024e-05	1781
bin	1.26736e-05	1765
bin	1.27448e-05	1829
bin	1.2816e-05	1802
bin	1.28872e-05	1808
bin	1.29584e-05	1809
bin	1.30296e-05	1814
bin	1.31008e-05	1736
bin	1.3172e-05	1877
bin	1.32432e-05	1852
bin	1.33144e-05	1833
bin	1.33856e-05	1879
bin	1.34568e-05	1812
bin	1.3528e-05	1786
bin	1.35992e-05	1795
bin	1.36704e-05	1775
bin	1.37416e-05	1680
bin	1.38128e-05	1801
bin	1.3884e-05	1742
bin	1.39552e-05	1705
bin	1.40264e-05	1641
bin	1.40976e-05	1711
bin	1.41688e-05	1645
bin	1.424e-05	1682
bin	1.43112e-05	1694
bin	1.43824e-05	1611
bin	1.44536e-05	1663
bin	1.45248e-05	1635
bin	1.4596e-05	1624
bin	1.46672e-05	1652
bin	1.47384e-05	1758
bin	1.48096e-05	1746
bin	1.48808e-05	1691
bin	1.4952e-05	1604
bin	1.50232e-05	1705
bin	1.50944e-05	1670
bin	1.51656e-05	1695
bin	1.52368e-05	1580
bin	1.5308e-05	1562
bin	1.53792e-05	1531
bin	1.54504e-05	1571
bin	1.55216e-05	1547
bin	1.55928e-05	1577
bin	1.5664e-05	1570
bin	1.57352e-05	1609
bin	1.58064e-05	1605
bin	1.58776e-05	1600
bin	1.59488e-05	1619
bin	1.602e-05	1608
bin	1.60912e-05	1562
bin	1.61624e-05	1640
bin	1.62336e-05	1545
bin	1.63048e-05	1591
bin	1.6376e-05	1504
bin	1.64472e-05	1516
bin	1.65184e-05	1491
bin	1.65896e-05	1564
bin	1.66608e-05	1538
bin	1.6732e-05	1475
bin	1.68032e-05	1476
bin	1.68744e-05	1492
bin	1.69456e-05	1441
bin	1.70168e-05	1497
bin	1.7088e-05	1442
bin	1.71592e-05	1481
bin	1.72304e-05	1498
bin	1.73016e-05	1468
bin	1.73728e-05	1522
bin	1.7444e-05	1449
bin	1.75152e-05	1418
bin	1.75864e-05	1442
bin	1.76576e-05	1393
bin	1.77288e-05	1417
bin	1.78e-05	1370
bin	1.78712e-05	1373
bin	1.79424e-05	1418
bin	1.80136e-05	1367
bin	1.80848e-05	1423
bin	1.8156e-05	1341
bin	1.82272e-05	1404
bin	1.82984e-05	1403
bin	1.83696e-05	1389
bin	1.84408e-05	1437
bin	1.8512e-05	1378
bin	1.85832e-05	1381
bin	1.86544e-05	1381
bin	1.87256e-05	1352
bin	1.87968e-05	1286
bin	1.8868e-05	1345
bin	1.89392e-05	1334
bin	1.90104e-05	1335
bin	1.90816e-05	1351
bin	1.91528e-05	1315
bin	1.9224e-05	1275
bin	1.92952e-05	1304
bin	1.93664e-05	1317
bin	1.94376e-05	1281
bin	1.95088e-05	1304
bin	1.958e-05	1306
bin	1.96512e-05	1343
bin	1.97224e-05	1317
bin	1.97936e-05	1299
bin	1.98648e-05	1291
bin	1.9936e-05	1263
bin	2.00072e-05	1292
bin	2.00784e-05	1271
bin	2.01496e-05	1304
bin	2.02208e-05	1322
bin	2.0292e-05	1287
bin	2.03632e-05	1202
bin	2.04344e-05	1262
bin	2.05056e-05	1244
bin	2.05768e-05	1232
bin	2.0648e-05	1322
bin	2.07192e-05	1323
bin	2.07904e-05	1238
bin	2.08616e-05	1259
bin	2.09328e-05	1250
bin	2.1004e-05	1295
bin	2.10752e-05	1256
bin	2.11464e-05	1201
bin	2.12176e-05	1224
bin	2.12888e-05	1241
bin	2.136e-05	1234
bin	2.14312e-05	1217
bin	2.15024e-05	1207
bin	2.15736e-05	1160
bin	2.16448e-05	1198
bin	2.1716e-05	1143
bin	2.17872e-05	1167
bin	2.18584e-05	1200
bin	2.19296e-05	1172
bin	2.20008e-05	1196
bin	2.2072e-05	1197
bin	2.21432e-05	1268
bin	2.22144e-05	1261
bin	2.22856e-05	1246
bin	2.23568e-05	1297
bin	2.2428e-05	1200
bin	2.24992e-05	1157
bin	2.25704e-05	1197
bin	2.26416e-05	1181
bin	2.27128e-05	1185
bin	2.2784e-05	1295
bin	2.28552e-05	1176
bin	2.29264e-05	1212
bin	2.29976e-05	1179
bin	2.30688e-05	1197
bin	2.314e-05	1242
bin	2.32112e-05	1241
bin	2.32824e-05	1225
bin	2.33536e-05	1167
bin	2.34248e-05	1179
bin	2.3496e-05	1222
bin	2.35672e-05	1223
bin	2.36384e-05	1220
bin	2.37096e-05	1205
bin	2.37808e-05	1255
bin	2.3852e-05	1254
bin	2.39232e-05	1288
bin	2.39944e-05	1255
bin	2.40656e-05	1217
bin	2.41368e-05	1164
bin	2.4208e-05	1184
bin	2.42792e-05	1178
bin	2.43504e-05	1187
bin	2.44216e-05	1214
bin	2.44928e-05	1250
bin	2.4564e-05	1198
bin	2.46352e-05	1235
bin	2.47064e-05	1266
bin	2.47776e-05	1250
bin	2.48488e-05	1229
bin	2.492e-05	1198
bin	2.49912e-05	1186
bin	2.50624e-05	1177
bin	2.51336e-05	1236
bin	2.52048e-05	1173
bin	2.5276e-05	1151
bin	2.53472e-05	1217
bin	2.54184e-05	1139
bin	2.54896e-05	1132
bin	2.55608e-05	1167
bin	2.5632e-05	1153
bin	2.57032e-05	1086
bin	2.57744e-05	1108
bin	2.58456e-05	1127
bin	2.59168e-05	1122
bin	2.5988e-05	1102
bin	2.60592e-05	1068
bin	2.61304e-05	1100
bin	2.62016e-05	1130
bin	2.62728e-05	1073
bin	2.6344e-05	1089
bin	2.64152e-05	1080
bin	2.64864e-05	1088
bin	2.65576e-05	1149
bin	2.66288e-05	1112
bin	2.67e-05	1129
bin	2.67712e-05	1159
bin	2.68424e-05	1140
bin	2.69136e-05	1205
bin	2.69848e-05	1176
bin	2.7056e-05	1135
bin	2.71272e-05	1151
bin	2.71984e-05	1145
bin	2.72696e-05	1100
bin	2.73408e-05	1121
bin	2.7412e-05	1094
bin	2.74832e-05	1107
bin	2.75544e-05	1135
bin	2.76256e-05	1133
bin	2.76968e-05	1112
bin	2.7768e-05	1079
bin	2.78392e-05	1131
bin	2.79104e-05	1157
bin	2.79816e-05	1094
bin	2.80528e-05	1100
bin	2.8124e-05	1120
bin	2.81952e-05	1135
bin	2.82664e-05	1132
bin	2.83376e-05	1092
bin	2.84088e-05	1107
bin	2.848e-05	1067
bin	2.85512e-05	1124
bin	2.86224e-05	1138
bin	2.86936e-05	1125
bin	2.87648e-05	1084
bin	2.8836e-05	1032
bin	2.89072e-05	1111
bin	2.89784e-05	1080
bin	2.90496e-05	1098
bin	2.91208e-05	1108
bin	2.9192e-05	1084
bin	2.92632e-05	1048
bin	2.93344e-05	1005
bin	2.94056e-05	1093
bin	2.94768e-05	1121
bin	2.9548e-05	1018
bin	2.96192e-05	990
bin	2.96904e-05	985
bin	2.97616e-05	954
bin	2.98328e-05	1013
bin	2.9904e-05	1013
bin	2.99752e-05	1058
bin	3.00464e-05	1073
bin	3.01176e-05	1054
bin	3.01888e-05	1083
bin	3.026e-05	1080
bin	3.03312e-05	1091
bin	3.04024e-05	1075
bin	3.04736e-05	1095
bin	3.05448e-05	1096
bin	3.0616e-05	1085
bin	3.06872e-05	1080
bin	3.07584e-05	1062
bin	3.08296e-05	1078
bin	3.09008e-05	1098
bin	3.0972e-05	1080
bin	3.10432e-05	1074
bin	3.11144e-05	1075
bin	3.11856e-05	1071
bin	3.12568e-05	1040
bin	3.1328e-05	1076
bin	3.13992e-05	1056
bin	3.14704e-05	1057
bin	3.15416e-05	1060
bin	3.16128e-05	1093
bin	3.1684e-05	1054
bin	3.17552e-05	1092
bin	3.18264e-05	1119
bin	3.18976e-05	1157
bin	3.19688e-05	1179
bin	3.204e-05	1168
bin	3.21112e-05	1086
bin	3.21824e-05	1077
bin	3.22536e-05	1054
bin	3.23248e-05	1052
bin	3.2396e-05	1004
bin	3.24672e-05	1009
bin	3.25384e-05	1019
bin	3.26096e-05	1002
bin	3.26808e-05	1029
bin	3.2752e-05	1068
bin	3.28232e-05	1069
bin	3.28944e-05	1030
bin	3.29656e-05	1076
bin	3.30368e-05	1055
bin	3.3108e-05	1071
bin	3.31792e-05	1091
bin	3.32504e-05	1128
bin	3.33216e-05	996
bin	3.33928e-05	1004
bin	3.3464e-05	999
bin	3.35352e-05	1034
bin	3.36064e-05	1020
bin	3.36776e-05	1072
bin	3.37488e-05	1112
bin	3.382e-05	1139
bin	3.38912e-05	1094
bin	3.39624e-05	1131
bin	3.40336e-05	1030
bin	3.41048e-05	1010
bin	3.4176e-05	1056
bin	3.42472e-05	1050
bin	3.43184e-05	1035
bin	3.43896e-05	1037
bin	3.44608e-05	1078
bin	3.4532e-05	1049
bin	3.46032e-05	1080
bin	3.46744e-05	1023
bin	3.47456e-05	1080
bin	3.48168e-05	1038
bin	3.4888e-05	1096
bin	3.49592e-05	1085
bin	3.50304e-05	1061
bin	3.51016e-05	1029
bin	3.51728e-05	1051
bin	3.5244e-05	1117
bin	3.53152e-05	1055
bin	3.53864e-05	1108
bin	3.54576e-05	1059
bin	3.55288e-05	1074
bin	3.56e-05	3775871
statistic Torus3d_bub.timer 	"Life Times"
field count 6291456
field mean 0.001090873965273
field stddev 0.00096872764377181
field sum 6863.1855540606
field sqrsum 13.390980988848
field min 7.33332997e-07
field max 0.003507182661093
bin	-INF	0
bin	0	29
bin	8.544e-07	718
bin	1.7088e-06	2235
bin	2.5632e-06	4171
bin	3.4176e-06	6598
bin	4.272e-06	8996
bin	5.1264e-06	11473
bin	5.9808e-06	13782
bin	6.8352e-06	16325
bin	7.6896e-06	18814
bin	8.544e-06	21828
bin	9.3984e-06	24368
bin	1.02528e-05	26614
bin	1.11072e-05	27896
bin	1.19616e-05	29727
bin	1.2816e-05	31546
bin	1.36704e-05	33380
bin	1.45248e-05	35404
bin	1.53792e-05	37438
bin	1.62336e-05	39018
bin	1.7088e-05	41168
bin	1.79424e-05	43071
bin	1.87968e-05	45475
bin	1.96512e-05	47357
bin	2.05056e-05	50190
bin	2.136e-05	52862
bin	2.22144e-05	55333
bin	2.30688e-05	57357
bin	2.39232e-05	59818
bin	2.47776e-05	61103
bin	2.5632e-05	61640
bin	2.64864e-05	61568
bin	2.73408e-05	60672
bin	2.81952e-05	59140
bin	2.90496e-05	56568
bin	2.9904e-05	54366
bin	3.07584e-05	51019
bin	3.16128e-05	46044
bin	3.24672e-05	40535
bin	3.33216e-05	36232
bin	3.4176e-05	31749
bin	3.50304e-05	28361
bin	3.58848e-05	25752
bin	3.67392e-05	22774
bin	3.75936e-05	20320
bin	3.8448e-05	18501
bin	3.93024e-05	16383
bin	4.01568e-05	14746
bin	4.10112e-05	13087
bin	4.18656e-05	11862
bin	4.272e-05	10756
bin	4.35744e-05	10015
bin	4.44288e-05	9463
bin	4.52832e-05	9041
bin	4.61376e-05	8541
bin	4.6992e-05	8196
bin	4.78464e-05	7798
bin	4.87008e-05	7704
bin	4.95552e-05	7477
bin	5.04096e-05	7300
bin	5.1264e-05	7124
bin	5.21184e-05	6991
bin	5.29728e-05	6800
bin	5.38272e-05	6569
bin	5.46816e-05	6641
bin	5.5536e-05	6611
bin	5.63904e-05	6686
bin	5.72448e-05	6483
bin	5.80992e-05	6358
bin	5.89536e-05	6370
bin	5.9808e-05	6404
bin	6.06624e-05	6369
bin	6.15168e-05	6122
bin	6.23712e-05	6144
bin	6.32256e-05	5991
bin	6.408e-05	5759
bin	6.49344e-05	5675
bin	6.57888e-05	5505
bin	6.66432e-05	5299
bin	6.74976e-05	5001
bin	6.8352e-05	4757
bin	6.92064e-05	4499
bin	7.00608e-05	4184
bin	7.09152e-05	4103
bin	7.17696e-05	3915
bin	7.2624e-05	3748
bin	7.34784e-05	3653
bin	7.43328e-05	3524
bin	7.51872e-05	3539
bin	7.60416e-05	3455
bin	7.6896e-05	3388
bin	7.77504e-05	3324
bin	7.86048e-05	3371
bin	7.94592e-05	3252
bin	8.03136e-05	3245
bin	8.1168e-05	3149
bin	8.20224e-05	3153
bin	8.28768e-05	3024
bin	8.37312e-05	3102
bin	8.45856e-05	3161
bin	8.544e-05	3150
bin	8.62944e-05	3162
bin	8.71488e-05	3279
bin	8.80032e-05	3235
bin	8.88576e-05	3138
bin	8.9712e-05	3171
bin	9.05664e-05	3158
bin	9.14208e-05	3176
bin	9.22752e-05	3210
bin	9.31296e-05	3215
bin	9.3984e-05	3099
bin	9.48384e-05	3109
bin	9.56928e-05	2945
bin	9.65472e-05	2917
bin	9.74016e-05	2862
bin	9.8256e-05	2764
bin	9.91104e-05	2718
bin	9.99648e-05	2658
bin	0.0001008192	2578
bin	0.0001016736	2505
bin	0.000102528	2498
bin	0.0001033824	2535
bin	0.0001042368	2392
bin	0.0001050912	2396
bin	0.0001059456	2356
bin	0.0001068	2229
bin	0.0001076544	2304
bin	0.0001085088	2265
bin	0.0001093632	2230
bin	0.0001102176	2190
bin	0.000111072	2241
bin	0.0001119264	2211
bin	0.0001127808	2174
bin	0.0001136352	2177
bin	0.0001144896	2212
bin	0.000115344	2146
bin	0.0001161984	2186
bin	0.0001170528	2202
bin	0.0001179072	2178
bin	0.0001187616	2200
bin	0.000119616	2181
bin	0.0001204704	2190
bin	0.0001213248	2202
bin	0.0001221792	2247
bin	0.0001230336	2139
bin	0.000123888	2203
bin	0.0001247424	2227
bin	0.0001255968	2261
bin	0.0001264512	2279
bin	0.0001273056	2122
bin	0.00012816	2120
bin	0.0001290144	2090
bin	0.0001298688	2032
bin	0.0001307232	2035
bin	0.0001315776	2020
bin	0.000132432	2020
bin	0.0001332864	1951
bin	0.0001341408	1954
bin	0.0001349952	1847
bin	0.0001358496	1776
bin	0.000136704	1812
bin	0.0001375584	1804
bin	0.0001384128	1770
bin	0.0001392672	1793
bin	0.0001401216	1756
bin	0.000140976	1771
bin	0.0001418304	1789
bin	0.0001426848	1769
bin	0.0001435392	1751
bin	0.0001443936	1760
bin	0.000145248	1796
bin	0.0001461024	1817
bin	0.0001469568	1846
bin	0.0001478112	1853
bin	0.0001486656	1785
bin	0.00014952	1801
bin	0.0001503744	1790
bin	0.0001512288	1775
bin	0.0001520832	1782
bin	0.0001529376	1761
bin	0.000153792	1794
bin	0.0001546464	1831
bin	0.0001555008	1831
bin	0.0001563552	1837
bin	0.0001572096	1804
bin	0.000158064	1751
bin	0.0001589184	1739
bin	0.0001597728	1773
bin	0.0001606272	1742
bin	0.0001614816	1695
bin	0.000162336	1709
bin	0.0001631904	1677
bin	0.0001640448	1596
bin	0.0001648992	1620
bin	0.0001657536	1644
bin	0.000166608	1585
bin	0.0001674624	1611
bin	0.0001683168	1597
bin	0.0001691712	1618
bin	0.0001700256	1548
bin	0.00017088	1544
bin	0.0001717344	1591
bin	0.0001725888	1480
bin	0.0001734432	1558
bin	0.0001742976	1519
bin	0.000175152	1514
bin	0.0001760064	1493
bin	0.0001768608	1492
bin	0.0001777152	1551
bin	0.0001785696	1512
bin	0.000179424	1555
bin	0.0001802784	1626
bin	0.0001811328	1547
bin	0.0001819872	1530
bin	0.0001828416	1624
bin	0.000183696	1576
bin	0.0001845504	1601
bin	0.0001854048	1581
bin	0.0001862592	1548
bin	0.0001871136	1553
bin	0.000187968	1567
bin	0.0001888224	1558
bin	0.0001896768	1578
bin	0.0001905312	1549
bin	0.0001913856	1579
bin	0.00019224	1574
bin	0.0001930944	1563
bin	0.0001939488	1539
bin	0.0001948032	1484
bin	0.0001956576	1435
bin	0.000196512	1465
bin	0.0001973664	1386
bin	0.0001982208	1413
bin	0.0001990752	1368
bin	0.0001999296	1430
bin	0.000200784	1413
bin	0.0002016384	1405
bin	0.0002024928	1434
bin	0.0002033472	1438
bin	0.0002042016	1362
bin	0.000205056	1375
bin	0.0002059104	1435
bin	0.0002067648	1436
bin	0.0002076192	1404
bin	0.0002084736	1413
bin	0.000209328	1444
bin	0.0002101824	1372
bin	0.0002110368	1434
bin	0.0002118912	1357
bin	0.0002127456	1398
bin	0.0002136	1445
bin	0.0002144544	1403
bin	0.0002153088	1450
bin	0.0002161632	1439
bin	0.0002170176	1501
bin	0.000217872	1446
bin	0.0002187264	1481
bin	0.0002195808	1402
bin	0.0002204352	1429
bin	0.0002212896	1467
bin	0.000222144	1469
bin	0.0002229984	1446
bin	0.0002238528	1410
bin	0.0002247072	1423
bin	0.0002255616	1378
bin	0.000226416	1421
bin	0.0002272704	1381
bin	0.0002281248	1387
bin	0.0002289792	1321
bin	0.0002298336	1289
bin	0.000230688	1367
bin	0.0002315424	1324
bin	0.0002323968	1325
bin	0.0002332512	1305
bin	0.0002341056	1267
bin	0.00023496	1353
bin	0.0002358144	1305
bin	0.0002366688	1315
bin	0.0002375232	1293
bin	0.0002383776	1242
bin	0.000239232	1321
bin	0.0002400864	1260
bin	0.0002409408	1273
bin	0.0002417952	1350
bin	0.0002426496	1401
bin	0.000243504	1375
bin	0.0002443584	1394
bin	0.0002452128	1414
bin	0.0002460672	1357
bin	0.0002469216	1303
bin	0.000247776	1356
bin	0.0002486304	1332
bin	0.0002494848	1313
bin	0.0002503392	1279
bin	0.0002511936	1303
bin	0.000252048	1281
bin	0.0002529024	1214
bin	0.0002537568	1252
bin	0.0002546112	1227
bin	0.0002554656	1202
bin	0.00025632	1169
bin	0.0002571744	1170
bin	0.0002580288	1144
bin	0.0002588832	1128
bin	0.0002597376	1130
bin	0.000260592	1237
bin	0.0002614464	1160
bin	0.0002623008	1209
bin	0.0002631552	1189
bin	0.0002640096	1169
bin	0.000264864	1116
bin	0.0002657184	1164
bin	0.0002665728	1149
bin	0.0002674272	1138
bin	0.0002682816	1107
bin	0.000269136	1179
bin	0.0002699904	1147
bin	0.0002708448	1153
bin	0.0002716992	1188
bin	0.0002725536	1159
bin	0.000273408	1164
bin	0.0002742624	1138
bin	0.0002751168	1096
bin	0.0002759712	1126
bin	0.0002768256	1156
bin	0.00027768	1139
bin	0.0002785344	1204
bin	0.0002793888	1123
bin	0.0002802432	1159
bin	0.0002810976	1193
bin	0.000281952	1173
bin	0.0002828064	1137
bin	0.0002836608	1138
bin	0.0002845152	1072
bin	0.0002853696	1136
bin	0.000286224	1150
bin	0.0002870784	1125
bin	0.0002879328	1071
bin	0.0002887872	1083
bin	0.0002896416	1081
bin	0.000290496	1080
bin	0.0002913504	1055
bin	0.0002922048	1072
bin	0.0002930592	1058
bin	0.0002939136	1112
bin	0.000294768	1094
bin	0.0002956224	1117
bin	0.0002964768	1136
bin	0.0002973312	1099
bin	0.0002981856	1062
bin	0.00029904	1081
bin	0.0002998944	1080
bin	0.0003007488	1081
bin	0.0003016032	1072
bin	0.0003024576	1062
bin	0.000303312	1094
bin	0.0003041664	1057
bin	0.0003050208	1056
bin	0.0003058752	1100
bin	0.0003067296	1091
bin	0.000307584	1076
bin	0.0003084384	1089
bin	0.0003092928	1104
bin	0.0003101472	1124
bin	0.0003110016	1124
bin	0.000311856	1064
bin	0.0003127104	1096
bin	0.0003135648	1112
bin	0.0003144192	1080
bin	0.0003152736	1094
bin	0.000316128	1078
bin	0.0003169824	1075
bin	0.0003178368	1023
bin	0.0003186912	1026
bin	0.0003195456	1055
bin	0.0003204	1025
bin	0.0003212544	1021
bin	0.0003221088	1019
bin	0.0003229632	1036
bin	0.0003238176	952
bin	0.000324672	989
bin	0.0003255264	964
bin	0.0003263808	973
bin	0.0003272352	1016
bin	0.0003280896	1002
bin	0.000328944	993
bin	0.0003297984	1043
bin	0.0003306528	994
bin	0.0003315072	1076
bin	0.0003323616	1026
bin	0.000333216	1025
bin	0.0003340704	1009
bin	0.0003349248	1014
bin	0.0003357792	1017
bin	0.0003366336	1035
bin	0.000337488	1039
bin	0.0003383424	1020
bin	0.0003391968	978
bin	0.0003400512	994
bin	0.0003409056	964
bin	0.00034176	1028
bin	0.0003426144	1021
bin	0.0003434688	964
bin	0.0003443232	952
bin	0.0003451776	988
bin	0.000346032	1016
bin	0.0003468864	1006
bin	0.0003477408	996
bin	0.0003485952	994
bin	0.0003494496	952
bin	0.000350304	951
bin	0.0003511584	953
bin	0.0003520128	995
bin	0.0003528672	940
bin	0.0003537216	976
bin	0.000354576	934
bin	0.0003554304	944
bin	0.0003562848	943
bin	0.0003571392	928
bin	0.0003579936	977
bin	0.000358848	951
bin	0.0003597024	960
bin	0.0003605568	1022
bin	0.0003614112	979
bin	0.0003622656	1012
bin	0.00036312	978
bin	0.0003639744	974
bin	0.0003648288	995
bin	0.0003656832	968
bin	0.0003665376	973
bin	0.000367392	1015
bin	0.0003682464	961
bin	0.0003691008	990
bin	0.0003699552	962
bin	0.0003708096	1019
bin	0.000371664	1053
bin	0.0003725184	1043
bin	0.0003733728	1038
bin	0.0003742272	981
bin	0.0003750816	1019
bin	0.000375936	985
bin	0.0003767904	1010
bin	0.0003776448	983
bin	0.0003784992	991
bin	0.0003793536	1003
bin	0.000380208	914
bin	0.0003810624	999
bin	0.0003819168	1019
bin	0.0003827712	946
bin	0.0003836256	954
bin	0.00038448	908
bin	0.0003853344	937
bin	0.0003861888	949
bin	0.0003870432	980
bin	0.0003878976	914
bin	0.000388752	922
bin	0.0003896064	969
bin	0.0003904608	978
bin	0.0003913152	921
bin	0.0003921696	956
bin	0.000393024	973
bin	0.0003938784	1068
bin	0.0003947328	1029
bin	0.0003955872	979
bin	0.0003964416	988
bin	0.000397296	994
bin	0.0003981504	947
bin	0.0003990048	1000
bin	0.0003998592	975
bin	0.0004007136	981
bin	0.000401568	978
bin	0.0004024224	1033
bin	0.0004032768	959
bin	0.0004041312	876
bin	0.0004049856	875
bin	0.00040584	866
bin	0.0004066944	873
bin	0.0004075488	886
bin	0.0004084032	826
bin	0.0004092576	835
bin	0.000410112	810
bin	0.0004109664	832
bin	0.0004118208	848
bin	0.0004126752	851
bin	0.0004135296	909
bin	0.000414384	936
bin	0.0004152384	910
bin	0.0004160928	864
bin	0.0004169472	939
bin	0.0004178016	899
bin	0.000418656	883
bin	0.0004195104	883
bin	0.0004203648	890
bin	0.0004212192	897
bin	0.0004220736	943
bin	0.000422928	933
bin	0.0004237824	952
bin	0.0004246368	926
bin	0.0004254912	896
bin	0.0004263456	853
bin	0.0004272	3809604
