version 2
run Permutation-32-20120710-22:13:50-28104
attr alg 0
attr buf 8
attr configname Permutation
attr datetime 20120710-22:13:50
attr delta 0.8
attr experiment Permutation
attr ext true
attr inifile altro.ini
attr iterationvars "$buf=8, $ext=true, $ofedge=2, $delta=0.8, $alg=0"
attr iterationvars2 "$buf=8, $ext=true, $ofedge=2, $delta=0.8, $alg=0, $repetition=0"
attr measurement "$buf=8, $ext=true, $ofedge=2, $delta=0.8, $alg=0"
attr network Torus3d_bub
attr ofedge 2
attr processid 28104
attr repetition 0
attr replication #0
attr resultdir altro-results
attr runnumber 32
attr seedset 32

scalar . 	alg 	0
scalar . 	buf 	8
scalar . 	delta 	0.8
scalar . 	ofedge 	2
scalar Torus3d_bub.timer 	#endTime 	0.002367839333333
scalar Torus3d_bub.timer 	#totalHops 	76339200
scalar Torus3d_bub.timer 	#totalPacks 	6291456
scalar Torus3d_bub.timer 	#totalDerouted 	0
scalar Torus3d_bub.timer 	#totalOutFlanked 	0
scalar Torus3d_bub.timer 	#totalCQRed 	0
scalar Torus3d_bub.timer 	#LB 	0.000786432
scalar Torus3d_bub.timer 	#ratio 	0.33213064287306
statistic Torus3d_bub.timer 	"Hop Times"
field count 6291456
field mean 3.7305693997584e-05
field stddev 5.082683170306e-05
field sum 234.70713233526
field sqrsum 0.025009048560583
field min 4.04962962e-07
field max 0.001599612333141
bin	-INF	0
bin	0	0
bin	7.12e-08	0
bin	1.424e-07	0
bin	2.136e-07	0
bin	2.848e-07	0
bin	3.56e-07	51
bin	4.272e-07	1611
bin	4.984e-07	5477
bin	5.696e-07	9252
bin	6.408e-07	13891
bin	7.12e-07	18162
bin	7.832e-07	22334
bin	8.544e-07	25684
bin	9.256e-07	28997
bin	9.968e-07	32102
bin	1.068e-06	34837
bin	1.1392e-06	37812
bin	1.2104e-06	41600
bin	1.2816e-06	45396
bin	1.3528e-06	50231
bin	1.424e-06	55302
bin	1.4952e-06	60278
bin	1.5664e-06	64507
bin	1.6376e-06	68280
bin	1.7088e-06	70979
bin	1.78e-06	72929
bin	1.8512e-06	73133
bin	1.9224e-06	72472
bin	1.9936e-06	71378
bin	2.0648e-06	68818
bin	2.136e-06	66444
bin	2.2072e-06	63052
bin	2.2784e-06	59812
bin	2.3496e-06	56742
bin	2.4208e-06	53173
bin	2.492e-06	49906
bin	2.5632e-06	46978
bin	2.6344e-06	44094
bin	2.7056e-06	41338
bin	2.7768e-06	38880
bin	2.848e-06	36519
bin	2.9192e-06	34325
bin	2.9904e-06	32214
bin	3.0616e-06	30458
bin	3.1328e-06	29071
bin	3.204e-06	27661
bin	3.2752e-06	25945
bin	3.3464e-06	24851
bin	3.4176e-06	23904
bin	3.4888e-06	22768
bin	3.56e-06	21514
bin	3.6312e-06	20499
bin	3.7024e-06	19757
bin	3.7736e-06	18917
bin	3.8448e-06	18152
bin	3.916e-06	17535
bin	3.9872e-06	16885
bin	4.0584e-06	16704
bin	4.1296e-06	15786
bin	4.2008e-06	15417
bin	4.272e-06	15096
bin	4.3432e-06	14396
bin	4.4144e-06	13964
bin	4.4856e-06	13633
bin	4.5568e-06	13283
bin	4.628e-06	12788
bin	4.6992e-06	12442
bin	4.7704e-06	12284
bin	4.8416e-06	11983
bin	4.9128e-06	11793
bin	4.984e-06	11354
bin	5.0552e-06	10941
bin	5.1264e-06	10909
bin	5.1976e-06	10853
bin	5.2688e-06	10460
bin	5.34e-06	10438
bin	5.4112e-06	10129
bin	5.4824e-06	9935
bin	5.5536e-06	9466
bin	5.6248e-06	9553
bin	5.696e-06	9561
bin	5.7672e-06	9486
bin	5.8384e-06	9214
bin	5.9096e-06	9156
bin	5.9808e-06	9033
bin	6.052e-06	8673
bin	6.1232e-06	8660
bin	6.1944e-06	8528
bin	6.2656e-06	8504
bin	6.3368e-06	8136
bin	6.408e-06	7960
bin	6.4792e-06	8039
bin	6.5504e-06	7918
bin	6.6216e-06	7715
bin	6.6928e-06	7770
bin	6.764e-06	7517
bin	6.8352e-06	7525
bin	6.9064e-06	7512
bin	6.9776e-06	7320
bin	7.0488e-06	7339
bin	7.12e-06	7122
bin	7.1912e-06	7121
bin	7.2624e-06	6991
bin	7.3336e-06	6882
bin	7.4048e-06	6902
bin	7.476e-06	6758
bin	7.5472e-06	6723
bin	7.6184e-06	6677
bin	7.6896e-06	6628
bin	7.7608e-06	6522
bin	7.832e-06	6322
bin	7.9032e-06	6351
bin	7.9744e-06	6354
bin	8.0456e-06	6246
bin	8.1168e-06	6151
bin	8.188e-06	6199
bin	8.2592e-06	6104
bin	8.3304e-06	6044
bin	8.4016e-06	5963
bin	8.4728e-06	5992
bin	8.544e-06	5851
bin	8.6152e-06	5864
bin	8.6864e-06	5883
bin	8.7576e-06	5850
bin	8.8288e-06	5782
bin	8.9e-06	5704
bin	8.9712e-06	5708
bin	9.0424e-06	5687
bin	9.1136e-06	5639
bin	9.1848e-06	5672
bin	9.256e-06	5446
bin	9.3272e-06	5606
bin	9.3984e-06	5542
bin	9.4696e-06	5402
bin	9.5408e-06	5316
bin	9.612e-06	5310
bin	9.6832e-06	5164
bin	9.7544e-06	5247
bin	9.8256e-06	5085
bin	9.8968e-06	5092
bin	9.968e-06	5136
bin	1.00392e-05	5136
bin	1.01104e-05	5178
bin	1.01816e-05	5009
bin	1.02528e-05	5004
bin	1.0324e-05	4927
bin	1.03952e-05	4978
bin	1.04664e-05	4875
bin	1.05376e-05	4797
bin	1.06088e-05	4836
bin	1.068e-05	4750
bin	1.07512e-05	4779
bin	1.08224e-05	4880
bin	1.08936e-05	4759
bin	1.09648e-05	4770
bin	1.1036e-05	4635
bin	1.11072e-05	4655
bin	1.11784e-05	4652
bin	1.12496e-05	4566
bin	1.13208e-05	4563
bin	1.1392e-05	4575
bin	1.14632e-05	4432
bin	1.15344e-05	4367
bin	1.16056e-05	4494
bin	1.16768e-05	4519
bin	1.1748e-05	4422
bin	1.18192e-05	4518
bin	1.18904e-05	4480
bin	1.19616e-05	4406
bin	1.20328e-05	4421
bin	1.2104e-05	4437
bin	1.21752e-05	4402
bin	1.22464e-05	4430
bin	1.23176e-05	4313
bin	1.23888e-05	4205
bin	1.246e-05	4345
bin	1.25312e-05	4260
bin	1.26024e-05	4186
bin	1.26736e-05	4201
bin	1.27448e-05	4297
bin	1.2816e-05	4172
bin	1.28872e-05	4116
bin	1.29584e-05	4241
bin	1.30296e-05	4121
bin	1.31008e-05	4223
bin	1.3172e-05	4046
bin	1.32432e-05	4086
bin	1.33144e-05	3904
bin	1.33856e-05	4054
bin	1.34568e-05	4016
bin	1.3528e-05	3911
bin	1.35992e-05	4004
bin	1.36704e-05	3870
bin	1.37416e-05	4018
bin	1.38128e-05	3855
bin	1.3884e-05	3785
bin	1.39552e-05	3827
bin	1.40264e-05	3860
bin	1.40976e-05	3799
bin	1.41688e-05	3826
bin	1.424e-05	3776
bin	1.43112e-05	3763
bin	1.43824e-05	3887
bin	1.44536e-05	3776
bin	1.45248e-05	3723
bin	1.4596e-05	3784
bin	1.46672e-05	3670
bin	1.47384e-05	3649
bin	1.48096e-05	3763
bin	1.48808e-05	3607
bin	1.4952e-05	3594
bin	1.50232e-05	3752
bin	1.50944e-05	3588
bin	1.51656e-05	3667
bin	1.52368e-05	3612
bin	1.5308e-05	3568
bin	1.53792e-05	3564
bin	1.54504e-05	3604
bin	1.55216e-05	3635
bin	1.55928e-05	3560
bin	1.5664e-05	3607
bin	1.57352e-05	3533
bin	1.58064e-05	3515
bin	1.58776e-05	3584
bin	1.59488e-05	3485
bin	1.602e-05	3548
bin	1.60912e-05	3490
bin	1.61624e-05	3533
bin	1.62336e-05	3535
bin	1.63048e-05	3379
bin	1.6376e-05	3439
bin	1.64472e-05	3341
bin	1.65184e-05	3329
bin	1.65896e-05	3388
bin	1.66608e-05	3368
bin	1.6732e-05	3412
bin	1.68032e-05	3470
bin	1.68744e-05	3420
bin	1.69456e-05	3346
bin	1.70168e-05	3357
bin	1.7088e-05	3438
bin	1.71592e-05	3393
bin	1.72304e-05	3366
bin	1.73016e-05	3261
bin	1.73728e-05	3282
bin	1.7444e-05	3340
bin	1.75152e-05	3252
bin	1.75864e-05	3310
bin	1.76576e-05	3241
bin	1.77288e-05	3322
bin	1.78e-05	3216
bin	1.78712e-05	3261
bin	1.79424e-05	3265
bin	1.80136e-05	3303
bin	1.80848e-05	3259
bin	1.8156e-05	3300
bin	1.82272e-05	3370
bin	1.82984e-05	3377
bin	1.83696e-05	3365
bin	1.84408e-05	3253
bin	1.8512e-05	3310
bin	1.85832e-05	3191
bin	1.86544e-05	3257
bin	1.87256e-05	3162
bin	1.87968e-05	3127
bin	1.8868e-05	3192
bin	1.89392e-05	3148
bin	1.90104e-05	3291
bin	1.90816e-05	3173
bin	1.91528e-05	3306
bin	1.9224e-05	3274
bin	1.92952e-05	3276
bin	1.93664e-05	3151
bin	1.94376e-05	3116
bin	1.95088e-05	3134
bin	1.958e-05	3126
bin	1.96512e-05	3234
bin	1.97224e-05	3178
bin	1.97936e-05	3166
bin	1.98648e-05	3137
bin	1.9936e-05	2994
bin	2.00072e-05	2920
bin	2.00784e-05	3069
bin	2.01496e-05	3033
bin	2.02208e-05	3019
bin	2.0292e-05	3005
bin	2.03632e-05	3117
bin	2.04344e-05	3187
bin	2.05056e-05	3166
bin	2.05768e-05	3073
bin	2.0648e-05	3078
bin	2.07192e-05	3039
bin	2.07904e-05	3125
bin	2.08616e-05	3064
bin	2.09328e-05	3030
bin	2.1004e-05	3098
bin	2.10752e-05	3047
bin	2.11464e-05	3078
bin	2.12176e-05	3038
bin	2.12888e-05	2954
bin	2.136e-05	2948
bin	2.14312e-05	3004
bin	2.15024e-05	2929
bin	2.15736e-05	2980
bin	2.16448e-05	3012
bin	2.1716e-05	2852
bin	2.17872e-05	2950
bin	2.18584e-05	2848
bin	2.19296e-05	2925
bin	2.20008e-05	2908
bin	2.2072e-05	2913
bin	2.21432e-05	2954
bin	2.22144e-05	2944
bin	2.22856e-05	3022
bin	2.23568e-05	2991
bin	2.2428e-05	2938
bin	2.24992e-05	2901
bin	2.25704e-05	2930
bin	2.26416e-05	2928
bin	2.27128e-05	3025
bin	2.2784e-05	2921
bin	2.28552e-05	2951
bin	2.29264e-05	2869
bin	2.29976e-05	2993
bin	2.30688e-05	3004
bin	2.314e-05	2839
bin	2.32112e-05	2933
bin	2.32824e-05	2913
bin	2.33536e-05	2870
bin	2.34248e-05	2892
bin	2.3496e-05	2835
bin	2.35672e-05	2933
bin	2.36384e-05	2926
bin	2.37096e-05	3000
bin	2.37808e-05	2921
bin	2.3852e-05	2881
bin	2.39232e-05	2964
bin	2.39944e-05	2821
bin	2.40656e-05	2858
bin	2.41368e-05	2895
bin	2.4208e-05	2871
bin	2.42792e-05	2846
bin	2.43504e-05	2817
bin	2.44216e-05	2887
bin	2.44928e-05	2773
bin	2.4564e-05	2821
bin	2.46352e-05	2768
bin	2.47064e-05	2813
bin	2.47776e-05	2791
bin	2.48488e-05	2785
bin	2.492e-05	2831
bin	2.49912e-05	2742
bin	2.50624e-05	2849
bin	2.51336e-05	2746
bin	2.52048e-05	2829
bin	2.5276e-05	2824
bin	2.53472e-05	2710
bin	2.54184e-05	2726
bin	2.54896e-05	2806
bin	2.55608e-05	2799
bin	2.5632e-05	2740
bin	2.57032e-05	2732
bin	2.57744e-05	2728
bin	2.58456e-05	2801
bin	2.59168e-05	2724
bin	2.5988e-05	2736
bin	2.60592e-05	2840
bin	2.61304e-05	2743
bin	2.62016e-05	2781
bin	2.62728e-05	2803
bin	2.6344e-05	2858
bin	2.64152e-05	2817
bin	2.64864e-05	2828
bin	2.65576e-05	2860
bin	2.66288e-05	2876
bin	2.67e-05	2784
bin	2.67712e-05	2804
bin	2.68424e-05	2816
bin	2.69136e-05	2816
bin	2.69848e-05	2747
bin	2.7056e-05	2728
bin	2.71272e-05	2694
bin	2.71984e-05	2730
bin	2.72696e-05	2662
bin	2.73408e-05	2684
bin	2.7412e-05	2681
bin	2.74832e-05	2686
bin	2.75544e-05	2614
bin	2.76256e-05	2654
bin	2.76968e-05	2646
bin	2.7768e-05	2753
bin	2.78392e-05	2545
bin	2.79104e-05	2695
bin	2.79816e-05	2688
bin	2.80528e-05	2776
bin	2.8124e-05	2800
bin	2.81952e-05	2767
bin	2.82664e-05	2748
bin	2.83376e-05	2821
bin	2.84088e-05	2712
bin	2.848e-05	2781
bin	2.85512e-05	2709
bin	2.86224e-05	2722
bin	2.86936e-05	2766
bin	2.87648e-05	2627
bin	2.8836e-05	2665
bin	2.89072e-05	2731
bin	2.89784e-05	2644
bin	2.90496e-05	2591
bin	2.91208e-05	2604
bin	2.9192e-05	2576
bin	2.92632e-05	2572
bin	2.93344e-05	2569
bin	2.94056e-05	2566
bin	2.94768e-05	2592
bin	2.9548e-05	2598
bin	2.96192e-05	2573
bin	2.96904e-05	2612
bin	2.97616e-05	2612
bin	2.98328e-05	2573
bin	2.9904e-05	2598
bin	2.99752e-05	2564
bin	3.00464e-05	2531
bin	3.01176e-05	2593
bin	3.01888e-05	2591
bin	3.026e-05	2595
bin	3.03312e-05	2621
bin	3.04024e-05	2603
bin	3.04736e-05	2666
bin	3.05448e-05	2582
bin	3.0616e-05	2586
bin	3.06872e-05	2717
bin	3.07584e-05	2600
bin	3.08296e-05	2717
bin	3.09008e-05	2651
bin	3.0972e-05	2648
bin	3.10432e-05	2783
bin	3.11144e-05	2690
bin	3.11856e-05	2615
bin	3.12568e-05	2621
bin	3.1328e-05	2686
bin	3.13992e-05	2651
bin	3.14704e-05	2579
bin	3.15416e-05	2625
bin	3.16128e-05	2490
bin	3.1684e-05	2532
bin	3.17552e-05	2534
bin	3.18264e-05	2564
bin	3.18976e-05	2541
bin	3.19688e-05	2552
bin	3.204e-05	2525
bin	3.21112e-05	2488
bin	3.21824e-05	2511
bin	3.22536e-05	2486
bin	3.23248e-05	2489
bin	3.2396e-05	2591
bin	3.24672e-05	2451
bin	3.25384e-05	2493
bin	3.26096e-05	2539
bin	3.26808e-05	2510
bin	3.2752e-05	2520
bin	3.28232e-05	2489
bin	3.28944e-05	2548
bin	3.29656e-05	2430
bin	3.30368e-05	2531
bin	3.3108e-05	2562
bin	3.31792e-05	2522
bin	3.32504e-05	2594
bin	3.33216e-05	2629
bin	3.33928e-05	2619
bin	3.3464e-05	2595
bin	3.35352e-05	2501
bin	3.36064e-05	2543
bin	3.36776e-05	2585
bin	3.37488e-05	2616
bin	3.382e-05	2560
bin	3.38912e-05	2583
bin	3.39624e-05	2597
bin	3.40336e-05	2679
bin	3.41048e-05	2628
bin	3.4176e-05	2641
bin	3.42472e-05	2647
bin	3.43184e-05	2654
bin	3.43896e-05	2649
bin	3.44608e-05	2643
bin	3.4532e-05	2619
bin	3.46032e-05	2582
bin	3.46744e-05	2713
bin	3.47456e-05	2616
bin	3.48168e-05	2659
bin	3.4888e-05	2679
bin	3.49592e-05	2745
bin	3.50304e-05	2683
bin	3.51016e-05	2650
bin	3.51728e-05	2654
bin	3.5244e-05	2644
bin	3.53152e-05	2662
bin	3.53864e-05	2708
bin	3.54576e-05	2672
bin	3.55288e-05	2676
bin	3.56e-05	2472575
statistic Torus3d_bub.timer 	"Life Times"
field count 6291456
field mean 0.00039962382605125
field stddev 0.00041051615107464
field sum 2514.2157181531
field sqrsum 2.0649985862579
field min 7.33332181e-07
field max 0.002361372333333
bin	-INF	0
bin	0	35
bin	8.544e-07	881
bin	1.7088e-06	2795
bin	2.5632e-06	5291
bin	3.4176e-06	8401
bin	4.272e-06	11306
bin	5.1264e-06	14711
bin	5.9808e-06	18038
bin	6.8352e-06	21267
bin	7.6896e-06	24523
bin	8.544e-06	28029
bin	9.3984e-06	31209
bin	1.02528e-05	34076
bin	1.11072e-05	36699
bin	1.19616e-05	38547
bin	1.2816e-05	41030
bin	1.36704e-05	43249
bin	1.45248e-05	45378
bin	1.53792e-05	47629
bin	1.62336e-05	48987
bin	1.7088e-05	51051
bin	1.79424e-05	53461
bin	1.87968e-05	55030
bin	1.96512e-05	57170
bin	2.05056e-05	59136
bin	2.136e-05	60812
bin	2.22144e-05	62356
bin	2.30688e-05	64147
bin	2.39232e-05	64607
bin	2.47776e-05	64946
bin	2.5632e-05	64751
bin	2.64864e-05	63998
bin	2.73408e-05	62684
bin	2.81952e-05	61437
bin	2.90496e-05	59125
bin	2.9904e-05	57122
bin	3.07584e-05	54565
bin	3.16128e-05	50444
bin	3.24672e-05	45950
bin	3.33216e-05	42223
bin	3.4176e-05	39001
bin	3.50304e-05	35832
bin	3.58848e-05	32691
bin	3.67392e-05	30155
bin	3.75936e-05	27502
bin	3.8448e-05	25549
bin	3.93024e-05	23548
bin	4.01568e-05	21589
bin	4.10112e-05	19876
bin	4.18656e-05	18547
bin	4.272e-05	17558
bin	4.35744e-05	16342
bin	4.44288e-05	15668
bin	4.52832e-05	14976
bin	4.61376e-05	14264
bin	4.6992e-05	13928
bin	4.78464e-05	13313
bin	4.87008e-05	13102
bin	4.95552e-05	12810
bin	5.04096e-05	12533
bin	5.1264e-05	12221
bin	5.21184e-05	12047
bin	5.29728e-05	11968
bin	5.38272e-05	11823
bin	5.46816e-05	11661
bin	5.5536e-05	11571
bin	5.63904e-05	11892
bin	5.72448e-05	11622
bin	5.80992e-05	11426
bin	5.89536e-05	11498
bin	5.9808e-05	11593
bin	6.06624e-05	11439
bin	6.15168e-05	11450
bin	6.23712e-05	11315
bin	6.32256e-05	11200
bin	6.408e-05	10950
bin	6.49344e-05	10803
bin	6.57888e-05	10354
bin	6.66432e-05	10012
bin	6.74976e-05	9925
bin	6.8352e-05	9639
bin	6.92064e-05	9290
bin	7.00608e-05	8883
bin	7.09152e-05	8498
bin	7.17696e-05	8407
bin	7.2624e-05	8163
bin	7.34784e-05	7807
bin	7.43328e-05	7416
bin	7.51872e-05	7232
bin	7.60416e-05	7166
bin	7.6896e-05	6940
bin	7.77504e-05	6806
bin	7.86048e-05	6749
bin	7.94592e-05	6753
bin	8.03136e-05	6756
bin	8.1168e-05	6657
bin	8.20224e-05	6703
bin	8.28768e-05	6585
bin	8.37312e-05	6611
bin	8.45856e-05	6607
bin	8.544e-05	6697
bin	8.62944e-05	6857
bin	8.71488e-05	6835
bin	8.80032e-05	6878
bin	8.88576e-05	6862
bin	8.9712e-05	6687
bin	9.05664e-05	6793
bin	9.14208e-05	6981
bin	9.22752e-05	6987
bin	9.31296e-05	6946
bin	9.3984e-05	6786
bin	9.48384e-05	6852
bin	9.56928e-05	6703
bin	9.65472e-05	6643
bin	9.74016e-05	6541
bin	9.8256e-05	6415
bin	9.91104e-05	6309
bin	9.99648e-05	6174
bin	0.0001008192	6011
bin	0.0001016736	5797
bin	0.000102528	5763
bin	0.0001033824	5635
bin	0.0001042368	5488
bin	0.0001050912	5389
bin	0.0001059456	5341
bin	0.0001068	5192
bin	0.0001076544	5130
bin	0.0001085088	5009
bin	0.0001093632	5060
bin	0.0001102176	5104
bin	0.000111072	5023
bin	0.0001119264	5015
bin	0.0001127808	5078
bin	0.0001136352	5050
bin	0.0001144896	5248
bin	0.000115344	5061
bin	0.0001161984	5020
bin	0.0001170528	5004
bin	0.0001179072	5167
bin	0.0001187616	5264
bin	0.000119616	5188
bin	0.0001204704	5291
bin	0.0001213248	5328
bin	0.0001221792	5321
bin	0.0001230336	5299
bin	0.000123888	5306
bin	0.0001247424	5236
bin	0.0001255968	5144
bin	0.0001264512	5268
bin	0.0001273056	5173
bin	0.00012816	5153
bin	0.0001290144	5010
bin	0.0001298688	4909
bin	0.0001307232	4869
bin	0.0001315776	4724
bin	0.000132432	4635
bin	0.0001332864	4539
bin	0.0001341408	4436
bin	0.0001349952	4439
bin	0.0001358496	4257
bin	0.000136704	4321
bin	0.0001375584	4293
bin	0.0001384128	4146
bin	0.0001392672	4187
bin	0.0001401216	4197
bin	0.000140976	4201
bin	0.0001418304	4102
bin	0.0001426848	4195
bin	0.0001435392	4167
bin	0.0001443936	4157
bin	0.000145248	4120
bin	0.0001461024	4038
bin	0.0001469568	4132
bin	0.0001478112	4164
bin	0.0001486656	4111
bin	0.00014952	4120
bin	0.0001503744	4261
bin	0.0001512288	4236
bin	0.0001520832	4359
bin	0.0001529376	4392
bin	0.000153792	4354
bin	0.0001546464	4358
bin	0.0001555008	4417
bin	0.0001563552	4304
bin	0.0001572096	4309
bin	0.000158064	4271
bin	0.0001589184	4426
bin	0.0001597728	4246
bin	0.0001606272	4151
bin	0.0001614816	4084
bin	0.000162336	4017
bin	0.0001631904	3888
bin	0.0001640448	3858
bin	0.0001648992	3764
bin	0.0001657536	3716
bin	0.000166608	3679
bin	0.0001674624	3637
bin	0.0001683168	3679
bin	0.0001691712	3525
bin	0.0001700256	3597
bin	0.00017088	3592
bin	0.0001717344	3400
bin	0.0001725888	3442
bin	0.0001734432	3450
bin	0.0001742976	3581
bin	0.000175152	3471
bin	0.0001760064	3481
bin	0.0001768608	3542
bin	0.0001777152	3620
bin	0.0001785696	3604
bin	0.000179424	3642
bin	0.0001802784	3668
bin	0.0001811328	3667
bin	0.0001819872	3888
bin	0.0001828416	3794
bin	0.000183696	3862
bin	0.0001845504	3810
bin	0.0001854048	3827
bin	0.0001862592	3869
bin	0.0001871136	3913
bin	0.000187968	3964
bin	0.0001888224	3810
bin	0.0001896768	3837
bin	0.0001905312	3795
bin	0.0001913856	3795
bin	0.00019224	3580
bin	0.0001930944	3568
bin	0.0001939488	3473
bin	0.0001948032	3409
bin	0.0001956576	3438
bin	0.000196512	3255
bin	0.0001973664	3294
bin	0.0001982208	3198
bin	0.0001990752	3190
bin	0.0001999296	3104
bin	0.000200784	3196
bin	0.0002016384	3132
bin	0.0002024928	3168
bin	0.0002033472	3109
bin	0.0002042016	3253
bin	0.000205056	3197
bin	0.0002059104	3218
bin	0.0002067648	3202
bin	0.0002076192	3235
bin	0.0002084736	3225
bin	0.000209328	3189
bin	0.0002101824	3254
bin	0.0002110368	3391
bin	0.0002118912	3220
bin	0.0002127456	3215
bin	0.0002136	3260
bin	0.0002144544	3271
bin	0.0002153088	3366
bin	0.0002161632	3293
bin	0.0002170176	3336
bin	0.000217872	3400
bin	0.0002187264	3318
bin	0.0002195808	3300
bin	0.0002204352	3282
bin	0.0002212896	3234
bin	0.000222144	3216
bin	0.0002229984	3172
bin	0.0002238528	3134
bin	0.0002247072	3108
bin	0.0002255616	3049
bin	0.000226416	3035
bin	0.0002272704	2926
bin	0.0002281248	2936
bin	0.0002289792	2938
bin	0.0002298336	2943
bin	0.000230688	2922
bin	0.0002315424	2882
bin	0.0002323968	2858
bin	0.0002332512	2889
bin	0.0002341056	2889
bin	0.00023496	2857
bin	0.0002358144	2843
bin	0.0002366688	2894
bin	0.0002375232	2990
bin	0.0002383776	2944
bin	0.000239232	2947
bin	0.0002400864	2976
bin	0.0002409408	3017
bin	0.0002417952	2961
bin	0.0002426496	2973
bin	0.000243504	3131
bin	0.0002443584	3133
bin	0.0002452128	3007
bin	0.0002460672	3125
bin	0.0002469216	3167
bin	0.000247776	3114
bin	0.0002486304	3150
bin	0.0002494848	3201
bin	0.0002503392	3148
bin	0.0002511936	3092
bin	0.000252048	3105
bin	0.0002529024	3001
bin	0.0002537568	3018
bin	0.0002546112	2904
bin	0.0002554656	2845
bin	0.00025632	2903
bin	0.0002571744	2793
bin	0.0002580288	2684
bin	0.0002588832	2718
bin	0.0002597376	2706
bin	0.000260592	2662
bin	0.0002614464	2612
bin	0.0002623008	2591
bin	0.0002631552	2619
bin	0.0002640096	2731
bin	0.000264864	2593
bin	0.0002657184	2616
bin	0.0002665728	2703
bin	0.0002674272	2669
bin	0.0002682816	2747
bin	0.000269136	2816
bin	0.0002699904	2664
bin	0.0002708448	2636
bin	0.0002716992	2662
bin	0.0002725536	2729
bin	0.000273408	2742
bin	0.0002742624	2676
bin	0.0002751168	2818
bin	0.0002759712	2759
bin	0.0002768256	2741
bin	0.00027768	2716
bin	0.0002785344	2739
bin	0.0002793888	2838
bin	0.0002802432	2767
bin	0.0002810976	2809
bin	0.000281952	2887
bin	0.0002828064	2872
bin	0.0002836608	2835
bin	0.0002845152	2773
bin	0.0002853696	2819
bin	0.000286224	2784
bin	0.0002870784	2766
bin	0.0002879328	2734
bin	0.0002887872	2626
bin	0.0002896416	2585
bin	0.000290496	2570
bin	0.0002913504	2551
bin	0.0002922048	2625
bin	0.0002930592	2586
bin	0.0002939136	2544
bin	0.000294768	2537
bin	0.0002956224	2555
bin	0.0002964768	2566
bin	0.0002973312	2523
bin	0.0002981856	2570
bin	0.00029904	2599
bin	0.0002998944	2581
bin	0.0003007488	2571
bin	0.0003016032	2656
bin	0.0003024576	2602
bin	0.000303312	2636
bin	0.0003041664	2609
bin	0.0003050208	2693
bin	0.0003058752	2644
bin	0.0003067296	2790
bin	0.000307584	2650
bin	0.0003084384	2639
bin	0.0003092928	2761
bin	0.0003101472	2763
bin	0.0003110016	2789
bin	0.000311856	2641
bin	0.0003127104	2696
bin	0.0003135648	2628
bin	0.0003144192	2637
bin	0.0003152736	2692
bin	0.000316128	2591
bin	0.0003169824	2583
bin	0.0003178368	2564
bin	0.0003186912	2469
bin	0.0003195456	2504
bin	0.0003204	2413
bin	0.0003212544	2413
bin	0.0003221088	2395
bin	0.0003229632	2372
bin	0.0003238176	2374
bin	0.000324672	2314
bin	0.0003255264	2389
bin	0.0003263808	2344
bin	0.0003272352	2358
bin	0.0003280896	2512
bin	0.000328944	2419
bin	0.0003297984	2481
bin	0.0003306528	2436
bin	0.0003315072	2510
bin	0.0003323616	2541
bin	0.000333216	2499
bin	0.0003340704	2552
bin	0.0003349248	2499
bin	0.0003357792	2537
bin	0.0003366336	2578
bin	0.000337488	2457
bin	0.0003383424	2610
bin	0.0003391968	2530
bin	0.0003400512	2604
bin	0.0003409056	2669
bin	0.00034176	2631
bin	0.0003426144	2555
bin	0.0003434688	2580
bin	0.0003443232	2552
bin	0.0003451776	2483
bin	0.000346032	2561
bin	0.0003468864	2435
bin	0.0003477408	2518
bin	0.0003485952	2438
bin	0.0003494496	2441
bin	0.000350304	2373
bin	0.0003511584	2282
bin	0.0003520128	2347
bin	0.0003528672	2338
bin	0.0003537216	2383
bin	0.000354576	2331
bin	0.0003554304	2319
bin	0.0003562848	2407
bin	0.0003571392	2395
bin	0.0003579936	2399
bin	0.000358848	2416
bin	0.0003597024	2353
bin	0.0003605568	2408
bin	0.0003614112	2425
bin	0.0003622656	2460
bin	0.00036312	2450
bin	0.0003639744	2406
bin	0.0003648288	2434
bin	0.0003656832	2419
bin	0.0003665376	2430
bin	0.000367392	2471
bin	0.0003682464	2529
bin	0.0003691008	2507
bin	0.0003699552	2521
bin	0.0003708096	2417
bin	0.000371664	2453
bin	0.0003725184	2545
bin	0.0003733728	2548
bin	0.0003742272	2521
bin	0.0003750816	2421
bin	0.000375936	2547
bin	0.0003767904	2557
bin	0.0003776448	2538
bin	0.0003784992	2599
bin	0.0003793536	2473
bin	0.000380208	2457
bin	0.0003810624	2370
bin	0.0003819168	2406
bin	0.0003827712	2350
bin	0.0003836256	2374
bin	0.00038448	2285
bin	0.0003853344	2320
bin	0.0003861888	2405
bin	0.0003870432	2293
bin	0.0003878976	2383
bin	0.000388752	2336
bin	0.0003896064	2314
bin	0.0003904608	2258
bin	0.0003913152	2395
bin	0.0003921696	2412
bin	0.000393024	2477
bin	0.0003938784	2395
bin	0.0003947328	2369
bin	0.0003955872	2335
bin	0.0003964416	2416
bin	0.000397296	2437
bin	0.0003981504	2415
bin	0.0003990048	2449
bin	0.0003998592	2470
bin	0.0004007136	2563
bin	0.000401568	2512
bin	0.0004024224	2539
bin	0.0004032768	2476
bin	0.0004041312	2552
bin	0.0004049856	2469
bin	0.00040584	2464
bin	0.0004066944	2562
bin	0.0004075488	2344
bin	0.0004084032	2421
bin	0.0004092576	2325
bin	0.000410112	2400
bin	0.0004109664	2312
bin	0.0004118208	2277
bin	0.0004126752	2242
bin	0.0004135296	2231
bin	0.000414384	2236
bin	0.0004152384	2291
bin	0.0004160928	2285
bin	0.0004169472	2284
bin	0.0004178016	2329
bin	0.000418656	2363
bin	0.0004195104	2331
bin	0.0004203648	2341
bin	0.0004212192	2390
bin	0.0004220736	2452
bin	0.000422928	2373
bin	0.0004237824	2364
bin	0.0004246368	2402
bin	0.0004254912	2340
bin	0.0004263456	2399
bin	0.0004272	2506935
