version 2
run Permutation-58-20120711-00:30:51-28160
attr alg 2
attr buf 8
attr configname Permutation
attr datetime 20120711-00:30:51
attr delta 1
attr experiment Permutation
attr ext false
attr inifile altro.ini
attr iterationvars "$buf=8, $ext=false, $ofedge=1, $delta=1, $alg=2"
attr iterationvars2 "$buf=8, $ext=false, $ofedge=1, $delta=1, $alg=2, $repetition=0"
attr measurement "$buf=8, $ext=false, $ofedge=1, $delta=1, $alg=2"
attr network Torus3d_bub
attr ofedge 1
attr processid 28160
attr repetition 0
attr replication #0
attr resultdir altro-results
attr runnumber 58
attr seedset 58

scalar . 	alg 	2
scalar . 	buf 	8
scalar . 	delta 	1
scalar . 	ofedge 	1
scalar Torus3d_bub.timer 	#endTime 	0.002832117662244
scalar Torus3d_bub.timer 	#totalHops 	90021566
scalar Torus3d_bub.timer 	#totalPacks 	6291456
scalar Torus3d_bub.timer 	#totalDerouted 	1981934
scalar Torus3d_bub.timer 	#totalOutFlanked 	0
scalar Torus3d_bub.timer 	#totalCQRed 	1981934
scalar Torus3d_bub.timer 	#LB 	0.000786432
scalar Torus3d_bub.timer 	#ratio 	0.27768337823114
statistic Torus3d_bub.timer 	"Hop Times"
field count 6291456
field mean 7.2894496486367e-05
field stddev 7.6701549532747e-05
field sum 458.61251728613
field sqrsum 0.070443761718279
field min 3.80142857e-07
field max 0.001696582333218
bin	-INF	0
bin	0	0
bin	7.12e-08	0
bin	1.424e-07	0
bin	2.136e-07	0
bin	2.848e-07	0
bin	3.56e-07	181
bin	4.272e-07	1307
bin	4.984e-07	3954
bin	5.696e-07	5586
bin	6.408e-07	7329
bin	7.12e-07	9023
bin	7.832e-07	10976
bin	8.544e-07	12974
bin	9.256e-07	14989
bin	9.968e-07	16959
bin	1.068e-06	19224
bin	1.1392e-06	21614
bin	1.2104e-06	23525
bin	1.2816e-06	26698
bin	1.3528e-06	29756
bin	1.424e-06	33138
bin	1.4952e-06	36212
bin	1.5664e-06	39293
bin	1.6376e-06	41846
bin	1.7088e-06	43555
bin	1.78e-06	44567
bin	1.8512e-06	44499
bin	1.9224e-06	43617
bin	1.9936e-06	42333
bin	2.0648e-06	40346
bin	2.136e-06	38124
bin	2.2072e-06	35990
bin	2.2784e-06	33941
bin	2.3496e-06	31938
bin	2.4208e-06	29595
bin	2.492e-06	27487
bin	2.5632e-06	25719
bin	2.6344e-06	23626
bin	2.7056e-06	21999
bin	2.7768e-06	20376
bin	2.848e-06	19082
bin	2.9192e-06	18028
bin	2.9904e-06	16746
bin	3.0616e-06	15821
bin	3.1328e-06	14887
bin	3.204e-06	13844
bin	3.2752e-06	13142
bin	3.3464e-06	12544
bin	3.4176e-06	12014
bin	3.4888e-06	11589
bin	3.56e-06	10828
bin	3.6312e-06	10094
bin	3.7024e-06	9632
bin	3.7736e-06	9419
bin	3.8448e-06	9000
bin	3.916e-06	8672
bin	3.9872e-06	8188
bin	4.0584e-06	8100
bin	4.1296e-06	7811
bin	4.2008e-06	7620
bin	4.272e-06	7365
bin	4.3432e-06	7330
bin	4.4144e-06	7072
bin	4.4856e-06	6857
bin	4.5568e-06	6744
bin	4.628e-06	6591
bin	4.6992e-06	6399
bin	4.7704e-06	6282
bin	4.8416e-06	6112
bin	4.9128e-06	6048
bin	4.984e-06	5622
bin	5.0552e-06	5756
bin	5.1264e-06	5560
bin	5.1976e-06	5626
bin	5.2688e-06	5550
bin	5.34e-06	5381
bin	5.4112e-06	5242
bin	5.4824e-06	5190
bin	5.5536e-06	4938
bin	5.6248e-06	4969
bin	5.696e-06	4962
bin	5.7672e-06	4817
bin	5.8384e-06	4656
bin	5.9096e-06	4622
bin	5.9808e-06	4575
bin	6.052e-06	4478
bin	6.1232e-06	4391
bin	6.1944e-06	4348
bin	6.2656e-06	4320
bin	6.3368e-06	4249
bin	6.408e-06	4236
bin	6.4792e-06	4296
bin	6.5504e-06	4134
bin	6.6216e-06	4133
bin	6.6928e-06	4061
bin	6.764e-06	4030
bin	6.8352e-06	3992
bin	6.9064e-06	3784
bin	6.9776e-06	3797
bin	7.0488e-06	3841
bin	7.12e-06	3729
bin	7.1912e-06	3809
bin	7.2624e-06	3775
bin	7.3336e-06	3739
bin	7.4048e-06	3790
bin	7.476e-06	3651
bin	7.5472e-06	3771
bin	7.6184e-06	3610
bin	7.6896e-06	3673
bin	7.7608e-06	3601
bin	7.832e-06	3549
bin	7.9032e-06	3568
bin	7.9744e-06	3614
bin	8.0456e-06	3544
bin	8.1168e-06	3565
bin	8.188e-06	3487
bin	8.2592e-06	3470
bin	8.3304e-06	3435
bin	8.4016e-06	3367
bin	8.4728e-06	3357
bin	8.544e-06	3462
bin	8.6152e-06	3449
bin	8.6864e-06	3364
bin	8.7576e-06	3234
bin	8.8288e-06	3264
bin	8.9e-06	3215
bin	8.9712e-06	3312
bin	9.0424e-06	3364
bin	9.1136e-06	3206
bin	9.1848e-06	3111
bin	9.256e-06	3224
bin	9.3272e-06	3205
bin	9.3984e-06	3238
bin	9.4696e-06	3201
bin	9.5408e-06	3199
bin	9.612e-06	3097
bin	9.6832e-06	3121
bin	9.7544e-06	3148
bin	9.8256e-06	3082
bin	9.8968e-06	3041
bin	9.968e-06	2983
bin	1.00392e-05	2995
bin	1.01104e-05	2967
bin	1.01816e-05	2993
bin	1.02528e-05	2919
bin	1.0324e-05	2982
bin	1.03952e-05	3002
bin	1.04664e-05	2994
bin	1.05376e-05	2992
bin	1.06088e-05	2804
bin	1.068e-05	2863
bin	1.07512e-05	2832
bin	1.08224e-05	2774
bin	1.08936e-05	2870
bin	1.09648e-05	2812
bin	1.1036e-05	2705
bin	1.11072e-05	2751
bin	1.11784e-05	2735
bin	1.12496e-05	2700
bin	1.13208e-05	2725
bin	1.1392e-05	2705
bin	1.14632e-05	2749
bin	1.15344e-05	2749
bin	1.16056e-05	2663
bin	1.16768e-05	2684
bin	1.1748e-05	2573
bin	1.18192e-05	2606
bin	1.18904e-05	2578
bin	1.19616e-05	2605
bin	1.20328e-05	2508
bin	1.2104e-05	2500
bin	1.21752e-05	2421
bin	1.22464e-05	2423
bin	1.23176e-05	2553
bin	1.23888e-05	2511
bin	1.246e-05	2575
bin	1.25312e-05	2492
bin	1.26024e-05	2530
bin	1.26736e-05	2523
bin	1.27448e-05	2528
bin	1.2816e-05	2441
bin	1.28872e-05	2414
bin	1.29584e-05	2436
bin	1.30296e-05	2383
bin	1.31008e-05	2393
bin	1.3172e-05	2390
bin	1.32432e-05	2421
bin	1.33144e-05	2352
bin	1.33856e-05	2315
bin	1.34568e-05	2386
bin	1.3528e-05	2330
bin	1.35992e-05	2260
bin	1.36704e-05	2273
bin	1.37416e-05	2273
bin	1.38128e-05	2262
bin	1.3884e-05	2316
bin	1.39552e-05	2321
bin	1.40264e-05	2277
bin	1.40976e-05	2247
bin	1.41688e-05	2246
bin	1.424e-05	2260
bin	1.43112e-05	2329
bin	1.43824e-05	2220
bin	1.44536e-05	2231
bin	1.45248e-05	2236
bin	1.4596e-05	2240
bin	1.46672e-05	2235
bin	1.47384e-05	2215
bin	1.48096e-05	2276
bin	1.48808e-05	2149
bin	1.4952e-05	2242
bin	1.50232e-05	2187
bin	1.50944e-05	2178
bin	1.51656e-05	2129
bin	1.52368e-05	2104
bin	1.5308e-05	2151
bin	1.53792e-05	2271
bin	1.54504e-05	2146
bin	1.55216e-05	2215
bin	1.55928e-05	2101
bin	1.5664e-05	2115
bin	1.57352e-05	2165
bin	1.58064e-05	2130
bin	1.58776e-05	2136
bin	1.59488e-05	2131
bin	1.602e-05	2076
bin	1.60912e-05	1988
bin	1.61624e-05	2038
bin	1.62336e-05	2139
bin	1.63048e-05	2119
bin	1.6376e-05	2029
bin	1.64472e-05	2207
bin	1.65184e-05	2097
bin	1.65896e-05	2121
bin	1.66608e-05	2013
bin	1.6732e-05	2057
bin	1.68032e-05	2123
bin	1.68744e-05	2202
bin	1.69456e-05	2168
bin	1.70168e-05	2114
bin	1.7088e-05	2113
bin	1.71592e-05	2188
bin	1.72304e-05	2045
bin	1.73016e-05	2066
bin	1.73728e-05	2045
bin	1.7444e-05	2029
bin	1.75152e-05	2014
bin	1.75864e-05	2159
bin	1.76576e-05	2148
bin	1.77288e-05	2007
bin	1.78e-05	2019
bin	1.78712e-05	2046
bin	1.79424e-05	2006
bin	1.80136e-05	1982
bin	1.80848e-05	1985
bin	1.8156e-05	1959
bin	1.82272e-05	1957
bin	1.82984e-05	1960
bin	1.83696e-05	1905
bin	1.84408e-05	2016
bin	1.8512e-05	1920
bin	1.85832e-05	1910
bin	1.86544e-05	1907
bin	1.87256e-05	2002
bin	1.87968e-05	1912
bin	1.8868e-05	1889
bin	1.89392e-05	1889
bin	1.90104e-05	1941
bin	1.90816e-05	1889
bin	1.91528e-05	1985
bin	1.9224e-05	1940
bin	1.92952e-05	1916
bin	1.93664e-05	1794
bin	1.94376e-05	1902
bin	1.95088e-05	1969
bin	1.958e-05	1898
bin	1.96512e-05	1957
bin	1.97224e-05	1936
bin	1.97936e-05	2032
bin	1.98648e-05	1980
bin	1.9936e-05	1906
bin	2.00072e-05	1883
bin	2.00784e-05	1844
bin	2.01496e-05	1839
bin	2.02208e-05	1856
bin	2.0292e-05	1888
bin	2.03632e-05	1825
bin	2.04344e-05	1723
bin	2.05056e-05	1817
bin	2.05768e-05	1816
bin	2.0648e-05	1842
bin	2.07192e-05	1827
bin	2.07904e-05	1756
bin	2.08616e-05	1884
bin	2.09328e-05	1896
bin	2.1004e-05	1898
bin	2.10752e-05	1903
bin	2.11464e-05	1927
bin	2.12176e-05	1891
bin	2.12888e-05	1894
bin	2.136e-05	1817
bin	2.14312e-05	1825
bin	2.15024e-05	1842
bin	2.15736e-05	1834
bin	2.16448e-05	1841
bin	2.1716e-05	1813
bin	2.17872e-05	1793
bin	2.18584e-05	1836
bin	2.19296e-05	1756
bin	2.20008e-05	1774
bin	2.2072e-05	1814
bin	2.21432e-05	1697
bin	2.22144e-05	1750
bin	2.22856e-05	1713
bin	2.23568e-05	1773
bin	2.2428e-05	1786
bin	2.24992e-05	1635
bin	2.25704e-05	1712
bin	2.26416e-05	1771
bin	2.27128e-05	1717
bin	2.2784e-05	1766
bin	2.28552e-05	1765
bin	2.29264e-05	1816
bin	2.29976e-05	1780
bin	2.30688e-05	1729
bin	2.314e-05	1707
bin	2.32112e-05	1673
bin	2.32824e-05	1682
bin	2.33536e-05	1631
bin	2.34248e-05	1650
bin	2.3496e-05	1610
bin	2.35672e-05	1604
bin	2.36384e-05	1605
bin	2.37096e-05	1642
bin	2.37808e-05	1583
bin	2.3852e-05	1568
bin	2.39232e-05	1632
bin	2.39944e-05	1594
bin	2.40656e-05	1683
bin	2.41368e-05	1690
bin	2.4208e-05	1707
bin	2.42792e-05	1755
bin	2.43504e-05	1806
bin	2.44216e-05	1780
bin	2.44928e-05	1781
bin	2.4564e-05	1836
bin	2.46352e-05	1813
bin	2.47064e-05	1823
bin	2.47776e-05	1848
bin	2.48488e-05	1845
bin	2.492e-05	1740
bin	2.49912e-05	1758
bin	2.50624e-05	1736
bin	2.51336e-05	1653
bin	2.52048e-05	1665
bin	2.5276e-05	1697
bin	2.53472e-05	1641
bin	2.54184e-05	1692
bin	2.54896e-05	1667
bin	2.55608e-05	1620
bin	2.5632e-05	1650
bin	2.57032e-05	1689
bin	2.57744e-05	1751
bin	2.58456e-05	1733
bin	2.59168e-05	1649
bin	2.5988e-05	1666
bin	2.60592e-05	1630
bin	2.61304e-05	1606
bin	2.62016e-05	1661
bin	2.62728e-05	1685
bin	2.6344e-05	1629
bin	2.64152e-05	1605
bin	2.64864e-05	1679
bin	2.65576e-05	1726
bin	2.66288e-05	1681
bin	2.67e-05	1646
bin	2.67712e-05	1705
bin	2.68424e-05	1731
bin	2.69136e-05	1753
bin	2.69848e-05	1737
bin	2.7056e-05	1746
bin	2.71272e-05	1743
bin	2.71984e-05	1774
bin	2.72696e-05	1776
bin	2.73408e-05	1702
bin	2.7412e-05	1768
bin	2.74832e-05	1738
bin	2.75544e-05	1729
bin	2.76256e-05	1763
bin	2.76968e-05	1820
bin	2.7768e-05	1751
bin	2.78392e-05	1751
bin	2.79104e-05	1779
bin	2.79816e-05	1799
bin	2.80528e-05	1804
bin	2.8124e-05	1785
bin	2.81952e-05	1842
bin	2.82664e-05	1855
bin	2.83376e-05	1810
bin	2.84088e-05	1837
bin	2.848e-05	1760
bin	2.85512e-05	1850
bin	2.86224e-05	1866
bin	2.86936e-05	1885
bin	2.87648e-05	1837
bin	2.8836e-05	1841
bin	2.89072e-05	1769
bin	2.89784e-05	1749
bin	2.90496e-05	1841
bin	2.91208e-05	1817
bin	2.9192e-05	1737
bin	2.92632e-05	1790
bin	2.93344e-05	1799
bin	2.94056e-05	1864
bin	2.94768e-05	1908
bin	2.9548e-05	1916
bin	2.96192e-05	1810
bin	2.96904e-05	1808
bin	2.97616e-05	1770
bin	2.98328e-05	1786
bin	2.9904e-05	1808
bin	2.99752e-05	1785
bin	3.00464e-05	1812
bin	3.01176e-05	1872
bin	3.01888e-05	1749
bin	3.026e-05	1735
bin	3.03312e-05	1802
bin	3.04024e-05	1848
bin	3.04736e-05	1810
bin	3.05448e-05	1902
bin	3.0616e-05	1866
bin	3.06872e-05	1872
bin	3.07584e-05	1847
bin	3.08296e-05	1864
bin	3.09008e-05	1952
bin	3.0972e-05	1924
bin	3.10432e-05	1861
bin	3.11144e-05	1947
bin	3.11856e-05	1863
bin	3.12568e-05	1906
bin	3.1328e-05	1979
bin	3.13992e-05	1962
bin	3.14704e-05	1876
bin	3.15416e-05	1857
bin	3.16128e-05	1863
bin	3.1684e-05	1781
bin	3.17552e-05	1852
bin	3.18264e-05	1811
bin	3.18976e-05	1884
bin	3.19688e-05	1843
bin	3.204e-05	1944
bin	3.21112e-05	1893
bin	3.21824e-05	1899
bin	3.22536e-05	1893
bin	3.23248e-05	1952
bin	3.2396e-05	1912
bin	3.24672e-05	1878
bin	3.25384e-05	1888
bin	3.26096e-05	1869
bin	3.26808e-05	1927
bin	3.2752e-05	1868
bin	3.28232e-05	1924
bin	3.28944e-05	1945
bin	3.29656e-05	1998
bin	3.30368e-05	2003
bin	3.3108e-05	2003
bin	3.31792e-05	2038
bin	3.32504e-05	1976
bin	3.33216e-05	2001
bin	3.33928e-05	2103
bin	3.3464e-05	2084
bin	3.35352e-05	2061
bin	3.36064e-05	2028
bin	3.36776e-05	2142
bin	3.37488e-05	2097
bin	3.382e-05	2111
bin	3.38912e-05	2061
bin	3.39624e-05	2040
bin	3.40336e-05	2111
bin	3.41048e-05	2049
bin	3.4176e-05	2146
bin	3.42472e-05	2107
bin	3.43184e-05	2084
bin	3.43896e-05	2049
bin	3.44608e-05	2005
bin	3.4532e-05	2102
bin	3.46032e-05	2112
bin	3.46744e-05	2037
bin	3.47456e-05	2022
bin	3.48168e-05	2087
bin	3.4888e-05	2065
bin	3.49592e-05	2029
bin	3.50304e-05	2040
bin	3.51016e-05	2067
bin	3.51728e-05	2043
bin	3.5244e-05	2041
bin	3.53152e-05	2036
bin	3.53864e-05	2083
bin	3.54576e-05	2098
bin	3.55288e-05	2017
bin	3.56e-05	4084817
statistic Torus3d_bub.timer 	"Life Times"
field count 6291456
field mean 0.00092486968552302
field stddev 0.00068867129416864
field sum 5818.7769322019
field sqrsum 8.3654471239554
field min 5.2e-07
field max 0.002757301999999
bin	-INF	0
bin	0	38
bin	8.544e-07	769
bin	1.7088e-06	2178
bin	2.5632e-06	3680
bin	3.4176e-06	5478
bin	4.272e-06	7404
bin	5.1264e-06	9263
bin	5.9808e-06	11210
bin	6.8352e-06	13044
bin	7.6896e-06	14898
bin	8.544e-06	16994
bin	9.3984e-06	18714
bin	1.02528e-05	20434
bin	1.11072e-05	21524
bin	1.19616e-05	22882
bin	1.2816e-05	24265
bin	1.36704e-05	24938
bin	1.45248e-05	25874
bin	1.53792e-05	26806
bin	1.62336e-05	27222
bin	1.7088e-05	28059
bin	1.79424e-05	28775
bin	1.87968e-05	29336
bin	1.96512e-05	29901
bin	2.05056e-05	30609
bin	2.136e-05	31791
bin	2.22144e-05	33019
bin	2.30688e-05	34379
bin	2.39232e-05	35552
bin	2.47776e-05	36292
bin	2.5632e-05	35524
bin	2.64864e-05	34523
bin	2.73408e-05	32927
bin	2.81952e-05	31025
bin	2.90496e-05	29063
bin	2.9904e-05	27153
bin	3.07584e-05	25462
bin	3.16128e-05	23786
bin	3.24672e-05	21851
bin	3.33216e-05	20264
bin	3.4176e-05	18600
bin	3.50304e-05	16895
bin	3.58848e-05	15276
bin	3.67392e-05	14113
bin	3.75936e-05	13234
bin	3.8448e-05	12487
bin	3.93024e-05	11941
bin	4.01568e-05	11250
bin	4.10112e-05	10714
bin	4.18656e-05	10087
bin	4.272e-05	9772
bin	4.35744e-05	9439
bin	4.44288e-05	9420
bin	4.52832e-05	9171
bin	4.61376e-05	9083
bin	4.6992e-05	8937
bin	4.78464e-05	8722
bin	4.87008e-05	8811
bin	4.95552e-05	8420
bin	5.04096e-05	8342
bin	5.1264e-05	8104
bin	5.21184e-05	8053
bin	5.29728e-05	7548
bin	5.38272e-05	7456
bin	5.46816e-05	6926
bin	5.5536e-05	6863
bin	5.63904e-05	6544
bin	5.72448e-05	6338
bin	5.80992e-05	5983
bin	5.89536e-05	5727
bin	5.9808e-05	5528
bin	6.06624e-05	5284
bin	6.15168e-05	5277
bin	6.23712e-05	5003
bin	6.32256e-05	4817
bin	6.408e-05	4731
bin	6.49344e-05	4603
bin	6.57888e-05	4656
bin	6.66432e-05	4506
bin	6.74976e-05	4512
bin	6.8352e-05	4456
bin	6.92064e-05	4356
bin	7.00608e-05	4477
bin	7.09152e-05	4280
bin	7.17696e-05	4345
bin	7.2624e-05	4530
bin	7.34784e-05	4482
bin	7.43328e-05	4491
bin	7.51872e-05	4458
bin	7.60416e-05	4467
bin	7.6896e-05	4335
bin	7.77504e-05	4386
bin	7.86048e-05	4250
bin	7.94592e-05	4216
bin	8.03136e-05	3968
bin	8.1168e-05	4055
bin	8.20224e-05	3921
bin	8.28768e-05	3718
bin	8.37312e-05	3779
bin	8.45856e-05	3702
bin	8.544e-05	3671
bin	8.62944e-05	3508
bin	8.71488e-05	3501
bin	8.80032e-05	3363
bin	8.88576e-05	3350
bin	8.9712e-05	3331
bin	9.05664e-05	3287
bin	9.14208e-05	3276
bin	9.22752e-05	3272
bin	9.31296e-05	3337
bin	9.3984e-05	3361
bin	9.48384e-05	3399
bin	9.56928e-05	3383
bin	9.65472e-05	3408
bin	9.74016e-05	3339
bin	9.8256e-05	3353
bin	9.91104e-05	3438
bin	9.99648e-05	3451
bin	0.0001008192	3387
bin	0.0001016736	3361
bin	0.000102528	3309
bin	0.0001033824	3334
bin	0.0001042368	3225
bin	0.0001050912	3178
bin	0.0001059456	3096
bin	0.0001068	3077
bin	0.0001076544	3035
bin	0.0001085088	2988
bin	0.0001093632	2893
bin	0.0001102176	2910
bin	0.000111072	2966
bin	0.0001119264	2873
bin	0.0001127808	2935
bin	0.0001136352	2864
bin	0.0001144896	2820
bin	0.000115344	2788
bin	0.0001161984	2788
bin	0.0001170528	2796
bin	0.0001179072	2823
bin	0.0001187616	2800
bin	0.000119616	2805
bin	0.0001204704	2842
bin	0.0001213248	2874
bin	0.0001221792	2882
bin	0.0001230336	2826
bin	0.000123888	2781
bin	0.0001247424	2784
bin	0.0001255968	2790
bin	0.0001264512	2821
bin	0.0001273056	2807
bin	0.00012816	2719
bin	0.0001290144	2780
bin	0.0001298688	2733
bin	0.0001307232	2643
bin	0.0001315776	2650
bin	0.000132432	2647
bin	0.0001332864	2643
bin	0.0001341408	2549
bin	0.0001349952	2528
bin	0.0001358496	2497
bin	0.000136704	2513
bin	0.0001375584	2442
bin	0.0001384128	2433
bin	0.0001392672	2396
bin	0.0001401216	2383
bin	0.000140976	2352
bin	0.0001418304	2330
bin	0.0001426848	2305
bin	0.0001435392	2300
bin	0.0001443936	2265
bin	0.000145248	2337
bin	0.0001461024	2328
bin	0.0001469568	2424
bin	0.0001478112	2485
bin	0.0001486656	2503
bin	0.00014952	2531
bin	0.0001503744	2448
bin	0.0001512288	2405
bin	0.0001520832	2431
bin	0.0001529376	2385
bin	0.000153792	2454
bin	0.0001546464	2368
bin	0.0001555008	2343
bin	0.0001563552	2186
bin	0.0001572096	2213
bin	0.000158064	2270
bin	0.0001589184	2207
bin	0.0001597728	2156
bin	0.0001606272	2105
bin	0.0001614816	2047
bin	0.000162336	2047
bin	0.0001631904	2069
bin	0.0001640448	2026
bin	0.0001648992	2083
bin	0.0001657536	1995
bin	0.000166608	2077
bin	0.0001674624	2062
bin	0.0001683168	2107
bin	0.0001691712	2209
bin	0.0001700256	2208
bin	0.00017088	2128
bin	0.0001717344	2234
bin	0.0001725888	2174
bin	0.0001734432	2156
bin	0.0001742976	2139
bin	0.000175152	2190
bin	0.0001760064	2172
bin	0.0001768608	2159
bin	0.0001777152	2141
bin	0.0001785696	2228
bin	0.000179424	2171
bin	0.0001802784	2112
bin	0.0001811328	2157
bin	0.0001819872	2109
bin	0.0001828416	2039
bin	0.000183696	2038
bin	0.0001845504	1903
bin	0.0001854048	1991
bin	0.0001862592	1939
bin	0.0001871136	1927
bin	0.000187968	1894
bin	0.0001888224	1908
bin	0.0001896768	1946
bin	0.0001905312	2008
bin	0.0001913856	2003
bin	0.00019224	1972
bin	0.0001930944	2008
bin	0.0001939488	2006
bin	0.0001948032	2020
bin	0.0001956576	2021
bin	0.000196512	2092
bin	0.0001973664	2079
bin	0.0001982208	2045
bin	0.0001990752	2103
bin	0.0001999296	2043
bin	0.000200784	2079
bin	0.0002016384	2053
bin	0.0002024928	2031
bin	0.0002033472	2035
bin	0.0002042016	1913
bin	0.000205056	1914
bin	0.0002059104	1920
bin	0.0002067648	1855
bin	0.0002076192	1819
bin	0.0002084736	1749
bin	0.000209328	1736
bin	0.0002101824	1746
bin	0.0002110368	1685
bin	0.0002118912	1748
bin	0.0002127456	1666
bin	0.0002136	1732
bin	0.0002144544	1738
bin	0.0002153088	1650
bin	0.0002161632	1725
bin	0.0002170176	1803
bin	0.000217872	1734
bin	0.0002187264	1766
bin	0.0002195808	1836
bin	0.0002204352	1871
bin	0.0002212896	1807
bin	0.000222144	1828
bin	0.0002229984	1796
bin	0.0002238528	1803
bin	0.0002247072	1767
bin	0.0002255616	1819
bin	0.000226416	1728
bin	0.0002272704	1790
bin	0.0002281248	1726
bin	0.0002289792	1797
bin	0.0002298336	1752
bin	0.000230688	1767
bin	0.0002315424	1717
bin	0.0002323968	1692
bin	0.0002332512	1654
bin	0.0002341056	1622
bin	0.00023496	1614
bin	0.0002358144	1601
bin	0.0002366688	1630
bin	0.0002375232	1602
bin	0.0002383776	1571
bin	0.000239232	1600
bin	0.0002400864	1556
bin	0.0002409408	1636
bin	0.0002417952	1629
bin	0.0002426496	1628
bin	0.000243504	1669
bin	0.0002443584	1611
bin	0.0002452128	1662
bin	0.0002460672	1627
bin	0.0002469216	1609
bin	0.000247776	1678
bin	0.0002486304	1640
bin	0.0002494848	1679
bin	0.0002503392	1678
bin	0.0002511936	1707
bin	0.000252048	1731
bin	0.0002529024	1736
bin	0.0002537568	1737
bin	0.0002546112	1633
bin	0.0002554656	1614
bin	0.00025632	1531
bin	0.0002571744	1557
bin	0.0002580288	1504
bin	0.0002588832	1479
bin	0.0002597376	1526
bin	0.000260592	1508
bin	0.0002614464	1509
bin	0.0002623008	1507
bin	0.0002631552	1451
bin	0.0002640096	1522
bin	0.000264864	1539
bin	0.0002657184	1521
bin	0.0002665728	1501
bin	0.0002674272	1583
bin	0.0002682816	1603
bin	0.000269136	1591
bin	0.0002699904	1620
bin	0.0002708448	1627
bin	0.0002716992	1622
bin	0.0002725536	1645
bin	0.000273408	1639
bin	0.0002742624	1623
bin	0.0002751168	1602
bin	0.0002759712	1582
bin	0.0002768256	1609
bin	0.00027768	1572
bin	0.0002785344	1573
bin	0.0002793888	1553
bin	0.0002802432	1516
bin	0.0002810976	1533
bin	0.000281952	1457
bin	0.0002828064	1484
bin	0.0002836608	1393
bin	0.0002845152	1397
bin	0.0002853696	1423
bin	0.000286224	1435
bin	0.0002870784	1458
bin	0.0002879328	1409
bin	0.0002887872	1440
bin	0.0002896416	1504
bin	0.000290496	1527
bin	0.0002913504	1497
bin	0.0002922048	1566
bin	0.0002930592	1534
bin	0.0002939136	1522
bin	0.000294768	1551
bin	0.0002956224	1591
bin	0.0002964768	1566
bin	0.0002973312	1583
bin	0.0002981856	1567
bin	0.00029904	1525
bin	0.0002998944	1516
bin	0.0003007488	1510
bin	0.0003016032	1535
bin	0.0003024576	1508
bin	0.000303312	1568
bin	0.0003041664	1518
bin	0.0003050208	1479
bin	0.0003058752	1445
bin	0.0003067296	1416
bin	0.000307584	1472
bin	0.0003084384	1394
bin	0.0003092928	1443
bin	0.0003101472	1432
bin	0.0003110016	1336
bin	0.000311856	1417
bin	0.0003127104	1403
bin	0.0003135648	1442
bin	0.0003144192	1401
bin	0.0003152736	1460
bin	0.000316128	1462
bin	0.0003169824	1454
bin	0.0003178368	1492
bin	0.0003186912	1516
bin	0.0003195456	1490
bin	0.0003204	1413
bin	0.0003212544	1419
bin	0.0003221088	1442
bin	0.0003229632	1519
bin	0.0003238176	1523
bin	0.000324672	1441
bin	0.0003255264	1526
bin	0.0003263808	1492
bin	0.0003272352	1448
bin	0.0003280896	1386
bin	0.000328944	1411
bin	0.0003297984	1408
bin	0.0003306528	1424
bin	0.0003315072	1367
bin	0.0003323616	1358
bin	0.000333216	1337
bin	0.0003340704	1366
bin	0.0003349248	1332
bin	0.0003357792	1408
bin	0.0003366336	1348
bin	0.000337488	1395
bin	0.0003383424	1401
bin	0.0003391968	1431
bin	0.0003400512	1397
bin	0.0003409056	1475
bin	0.00034176	1470
bin	0.0003426144	1474
bin	0.0003434688	1474
bin	0.0003443232	1499
bin	0.0003451776	1548
bin	0.000346032	1507
bin	0.0003468864	1472
bin	0.0003477408	1469
bin	0.0003485952	1551
bin	0.0003494496	1509
bin	0.000350304	1502
bin	0.0003511584	1475
bin	0.0003520128	1527
bin	0.0003528672	1450
bin	0.0003537216	1557
bin	0.000354576	1500
bin	0.0003554304	1452
bin	0.0003562848	1466
bin	0.0003571392	1448
bin	0.0003579936	1484
bin	0.000358848	1454
bin	0.0003597024	1421
bin	0.0003605568	1445
bin	0.0003614112	1473
bin	0.0003622656	1406
bin	0.00036312	1360
bin	0.0003639744	1412
bin	0.0003648288	1358
bin	0.0003656832	1425
bin	0.0003665376	1424
bin	0.000367392	1422
bin	0.0003682464	1420
bin	0.0003691008	1391
bin	0.0003699552	1395
bin	0.0003708096	1464
bin	0.000371664	1506
bin	0.0003725184	1505
bin	0.0003733728	1503
bin	0.0003742272	1455
bin	0.0003750816	1493
bin	0.000375936	1440
bin	0.0003767904	1369
bin	0.0003776448	1360
bin	0.0003784992	1329
bin	0.0003793536	1344
bin	0.000380208	1337
bin	0.0003810624	1318
bin	0.0003819168	1291
bin	0.0003827712	1318
bin	0.0003836256	1262
bin	0.00038448	1270
bin	0.0003853344	1289
bin	0.0003861888	1267
bin	0.0003870432	1277
bin	0.0003878976	1296
bin	0.000388752	1293
bin	0.0003896064	1323
bin	0.0003904608	1296
bin	0.0003913152	1354
bin	0.0003921696	1314
bin	0.000393024	1360
bin	0.0003938784	1357
bin	0.0003947328	1377
bin	0.0003955872	1412
bin	0.0003964416	1434
bin	0.000397296	1367
bin	0.0003981504	1338
bin	0.0003990048	1315
bin	0.0003998592	1347
bin	0.0004007136	1278
bin	0.000401568	1263
bin	0.0004024224	1291
bin	0.0004032768	1286
bin	0.0004041312	1261
bin	0.0004049856	1236
bin	0.00040584	1261
bin	0.0004066944	1269
bin	0.0004075488	1238
bin	0.0004084032	1229
bin	0.0004092576	1235
bin	0.000410112	1208
bin	0.0004109664	1194
bin	0.0004118208	1220
bin	0.0004126752	1228
bin	0.0004135296	1185
bin	0.000414384	1273
bin	0.0004152384	1265
bin	0.0004160928	1208
bin	0.0004169472	1242
bin	0.0004178016	1270
bin	0.000418656	1270
bin	0.0004195104	1266
bin	0.0004203648	1261
bin	0.0004212192	1262
bin	0.0004220736	1253
bin	0.000422928	1281
bin	0.0004237824	1267
bin	0.0004246368	1272
bin	0.0004254912	1289
bin	0.0004263456	1226
bin	0.0004272	4223640
