version 2
run Permutation-55-20120711-00:03:53-28149
attr alg 3
attr buf 8
attr configname Permutation
attr datetime 20120711-00:03:53
attr delta 0.8
attr experiment Permutation
attr ext false
attr inifile altro.ini
attr iterationvars "$buf=8, $ext=false, $ofedge=1, $delta=0.8, $alg=3"
attr iterationvars2 "$buf=8, $ext=false, $ofedge=1, $delta=0.8, $alg=3, $repetition=0"
attr measurement "$buf=8, $ext=false, $ofedge=1, $delta=0.8, $alg=3"
attr network Torus3d_bub
attr ofedge 1
attr processid 28149
attr repetition 0
attr replication #0
attr resultdir altro-results
attr runnumber 55
attr seedset 55

scalar . 	alg 	3
scalar . 	buf 	8
scalar . 	delta 	0.8
scalar . 	ofedge 	1
scalar Torus3d_bub.timer 	#endTime 	0.001298983998895
scalar Torus3d_bub.timer 	#totalHops 	79281807
scalar Torus3d_bub.timer 	#totalPacks 	6291456
scalar Torus3d_bub.timer 	#totalDerouted 	1181009
scalar Torus3d_bub.timer 	#totalOutFlanked 	743848
scalar Torus3d_bub.timer 	#totalCQRed 	437161
scalar Torus3d_bub.timer 	#LB 	0.000786432
scalar Torus3d_bub.timer 	#ratio 	0.60542085250395
statistic Torus3d_bub.timer 	"Hop Times"
field count 6291456
field mean 3.0592851207803e-06
field stddev 4.1623068656086e-06
field sum 19.247357728844
field sqrsum 0.00016788134490549
field min 3.77125e-07
field max 0.000283929332037
bin	-INF	0
bin	0	0
bin	7.12e-08	0
bin	1.424e-07	0
bin	2.136e-07	0
bin	2.848e-07	0
bin	3.56e-07	390
bin	4.272e-07	7523
bin	4.984e-07	20423
bin	5.696e-07	34188
bin	6.408e-07	50929
bin	7.12e-07	66973
bin	7.832e-07	79993
bin	8.544e-07	89200
bin	9.256e-07	97832
bin	9.968e-07	104790
bin	1.068e-06	113071
bin	1.1392e-06	125057
bin	1.2104e-06	140126
bin	1.2816e-06	162462
bin	1.3528e-06	188799
bin	1.424e-06	214211
bin	1.4952e-06	237120
bin	1.5664e-06	254864
bin	1.6376e-06	265146
bin	1.7088e-06	268295
bin	1.78e-06	265218
bin	1.8512e-06	255545
bin	1.9224e-06	242648
bin	1.9936e-06	225959
bin	2.0648e-06	208387
bin	2.136e-06	189361
bin	2.2072e-06	170546
bin	2.2784e-06	153286
bin	2.3496e-06	136486
bin	2.4208e-06	121600
bin	2.492e-06	108502
bin	2.5632e-06	96743
bin	2.6344e-06	85975
bin	2.7056e-06	76453
bin	2.7768e-06	68630
bin	2.848e-06	61221
bin	2.9192e-06	54859
bin	2.9904e-06	49286
bin	3.0616e-06	44213
bin	3.1328e-06	39993
bin	3.204e-06	36381
bin	3.2752e-06	32757
bin	3.3464e-06	30117
bin	3.4176e-06	27453
bin	3.4888e-06	25030
bin	3.56e-06	23220
bin	3.6312e-06	21480
bin	3.7024e-06	19470
bin	3.7736e-06	17988
bin	3.8448e-06	16810
bin	3.916e-06	15893
bin	3.9872e-06	14655
bin	4.0584e-06	13736
bin	4.1296e-06	12953
bin	4.2008e-06	12193
bin	4.272e-06	11579
bin	4.3432e-06	10991
bin	4.4144e-06	10555
bin	4.4856e-06	9922
bin	4.5568e-06	9562
bin	4.628e-06	9158
bin	4.6992e-06	8769
bin	4.7704e-06	8551
bin	4.8416e-06	8183
bin	4.9128e-06	7931
bin	4.984e-06	7428
bin	5.0552e-06	7501
bin	5.1264e-06	7385
bin	5.1976e-06	6930
bin	5.2688e-06	6762
bin	5.34e-06	6619
bin	5.4112e-06	6601
bin	5.4824e-06	6413
bin	5.5536e-06	6169
bin	5.6248e-06	6209
bin	5.696e-06	6015
bin	5.7672e-06	5890
bin	5.8384e-06	5917
bin	5.9096e-06	5718
bin	5.9808e-06	5767
bin	6.052e-06	5850
bin	6.1232e-06	5678
bin	6.1944e-06	5765
bin	6.2656e-06	5547
bin	6.3368e-06	5477
bin	6.408e-06	5539
bin	6.4792e-06	5398
bin	6.5504e-06	5514
bin	6.6216e-06	5334
bin	6.6928e-06	5488
bin	6.764e-06	5217
bin	6.8352e-06	5298
bin	6.9064e-06	5311
bin	6.9776e-06	5293
bin	7.0488e-06	5261
bin	7.12e-06	5232
bin	7.1912e-06	5334
bin	7.2624e-06	5103
bin	7.3336e-06	5040
bin	7.4048e-06	5047
bin	7.476e-06	5104
bin	7.5472e-06	5001
bin	7.6184e-06	5127
bin	7.6896e-06	5011
bin	7.7608e-06	4970
bin	7.832e-06	4986
bin	7.9032e-06	4958
bin	7.9744e-06	5027
bin	8.0456e-06	4867
bin	8.1168e-06	4906
bin	8.188e-06	4955
bin	8.2592e-06	4878
bin	8.3304e-06	4624
bin	8.4016e-06	4822
bin	8.4728e-06	4675
bin	8.544e-06	4699
bin	8.6152e-06	4575
bin	8.6864e-06	4584
bin	8.7576e-06	4507
bin	8.8288e-06	4460
bin	8.9e-06	4403
bin	8.9712e-06	4310
bin	9.0424e-06	4383
bin	9.1136e-06	4437
bin	9.1848e-06	4353
bin	9.256e-06	4334
bin	9.3272e-06	4209
bin	9.3984e-06	4096
bin	9.4696e-06	4160
bin	9.5408e-06	4224
bin	9.612e-06	4023
bin	9.6832e-06	3980
bin	9.7544e-06	4062
bin	9.8256e-06	4046
bin	9.8968e-06	3885
bin	9.968e-06	3752
bin	1.00392e-05	3862
bin	1.01104e-05	3921
bin	1.01816e-05	3963
bin	1.02528e-05	3717
bin	1.0324e-05	3773
bin	1.03952e-05	3633
bin	1.04664e-05	3558
bin	1.05376e-05	3551
bin	1.06088e-05	3640
bin	1.068e-05	3651
bin	1.07512e-05	3534
bin	1.08224e-05	3554
bin	1.08936e-05	3442
bin	1.09648e-05	3391
bin	1.1036e-05	3337
bin	1.11072e-05	3309
bin	1.11784e-05	3315
bin	1.12496e-05	3080
bin	1.13208e-05	3140
bin	1.1392e-05	3168
bin	1.14632e-05	3190
bin	1.15344e-05	3058
bin	1.16056e-05	3049
bin	1.16768e-05	2971
bin	1.1748e-05	2964
bin	1.18192e-05	2923
bin	1.18904e-05	2923
bin	1.19616e-05	2845
bin	1.20328e-05	2719
bin	1.2104e-05	2757
bin	1.21752e-05	2707
bin	1.22464e-05	2610
bin	1.23176e-05	2610
bin	1.23888e-05	2568
bin	1.246e-05	2643
bin	1.25312e-05	2543
bin	1.26024e-05	2525
bin	1.26736e-05	2452
bin	1.27448e-05	2491
bin	1.2816e-05	2383
bin	1.28872e-05	2488
bin	1.29584e-05	2496
bin	1.30296e-05	2367
bin	1.31008e-05	2237
bin	1.3172e-05	2298
bin	1.32432e-05	2232
bin	1.33144e-05	2165
bin	1.33856e-05	2175
bin	1.34568e-05	2109
bin	1.3528e-05	2119
bin	1.35992e-05	2141
bin	1.36704e-05	2133
bin	1.37416e-05	2082
bin	1.38128e-05	2152
bin	1.3884e-05	2003
bin	1.39552e-05	1904
bin	1.40264e-05	1880
bin	1.40976e-05	2001
bin	1.41688e-05	1936
bin	1.424e-05	1925
bin	1.43112e-05	1881
bin	1.43824e-05	1888
bin	1.44536e-05	1786
bin	1.45248e-05	1742
bin	1.4596e-05	1750
bin	1.46672e-05	1759
bin	1.47384e-05	1726
bin	1.48096e-05	1776
bin	1.48808e-05	1744
bin	1.4952e-05	1709
bin	1.50232e-05	1671
bin	1.50944e-05	1611
bin	1.51656e-05	1635
bin	1.52368e-05	1609
bin	1.5308e-05	1645
bin	1.53792e-05	1567
bin	1.54504e-05	1587
bin	1.55216e-05	1493
bin	1.55928e-05	1502
bin	1.5664e-05	1480
bin	1.57352e-05	1430
bin	1.58064e-05	1427
bin	1.58776e-05	1373
bin	1.59488e-05	1375
bin	1.602e-05	1452
bin	1.60912e-05	1414
bin	1.61624e-05	1389
bin	1.62336e-05	1363
bin	1.63048e-05	1354
bin	1.6376e-05	1359
bin	1.64472e-05	1383
bin	1.65184e-05	1310
bin	1.65896e-05	1271
bin	1.66608e-05	1282
bin	1.6732e-05	1299
bin	1.68032e-05	1212
bin	1.68744e-05	1202
bin	1.69456e-05	1207
bin	1.70168e-05	1231
bin	1.7088e-05	1156
bin	1.71592e-05	1166
bin	1.72304e-05	1128
bin	1.73016e-05	1126
bin	1.73728e-05	1106
bin	1.7444e-05	1096
bin	1.75152e-05	1108
bin	1.75864e-05	1107
bin	1.76576e-05	1042
bin	1.77288e-05	1016
bin	1.78e-05	1061
bin	1.78712e-05	1013
bin	1.79424e-05	972
bin	1.80136e-05	989
bin	1.80848e-05	990
bin	1.8156e-05	1056
bin	1.82272e-05	979
bin	1.82984e-05	927
bin	1.83696e-05	921
bin	1.84408e-05	977
bin	1.8512e-05	967
bin	1.85832e-05	912
bin	1.86544e-05	919
bin	1.87256e-05	884
bin	1.87968e-05	914
bin	1.8868e-05	843
bin	1.89392e-05	782
bin	1.90104e-05	877
bin	1.90816e-05	816
bin	1.91528e-05	828
bin	1.9224e-05	829
bin	1.92952e-05	821
bin	1.93664e-05	764
bin	1.94376e-05	854
bin	1.95088e-05	826
bin	1.958e-05	816
bin	1.96512e-05	781
bin	1.97224e-05	736
bin	1.97936e-05	737
bin	1.98648e-05	742
bin	1.9936e-05	722
bin	2.00072e-05	747
bin	2.00784e-05	699
bin	2.01496e-05	650
bin	2.02208e-05	715
bin	2.0292e-05	669
bin	2.03632e-05	697
bin	2.04344e-05	635
bin	2.05056e-05	647
bin	2.05768e-05	619
bin	2.0648e-05	632
bin	2.07192e-05	652
bin	2.07904e-05	619
bin	2.08616e-05	600
bin	2.09328e-05	617
bin	2.1004e-05	609
bin	2.10752e-05	600
bin	2.11464e-05	551
bin	2.12176e-05	535
bin	2.12888e-05	563
bin	2.136e-05	533
bin	2.14312e-05	503
bin	2.15024e-05	528
bin	2.15736e-05	546
bin	2.16448e-05	531
bin	2.1716e-05	497
bin	2.17872e-05	475
bin	2.18584e-05	510
bin	2.19296e-05	500
bin	2.20008e-05	461
bin	2.2072e-05	445
bin	2.21432e-05	485
bin	2.22144e-05	466
bin	2.22856e-05	499
bin	2.23568e-05	469
bin	2.2428e-05	482
bin	2.24992e-05	423
bin	2.25704e-05	454
bin	2.26416e-05	446
bin	2.27128e-05	440
bin	2.2784e-05	394
bin	2.28552e-05	407
bin	2.29264e-05	412
bin	2.29976e-05	407
bin	2.30688e-05	403
bin	2.314e-05	407
bin	2.32112e-05	387
bin	2.32824e-05	389
bin	2.33536e-05	382
bin	2.34248e-05	373
bin	2.3496e-05	391
bin	2.35672e-05	372
bin	2.36384e-05	372
bin	2.37096e-05	417
bin	2.37808e-05	400
bin	2.3852e-05	377
bin	2.39232e-05	347
bin	2.39944e-05	384
bin	2.40656e-05	374
bin	2.41368e-05	374
bin	2.4208e-05	336
bin	2.42792e-05	349
bin	2.43504e-05	312
bin	2.44216e-05	332
bin	2.44928e-05	306
bin	2.4564e-05	311
bin	2.46352e-05	300
bin	2.47064e-05	330
bin	2.47776e-05	312
bin	2.48488e-05	327
bin	2.492e-05	308
bin	2.49912e-05	329
bin	2.50624e-05	322
bin	2.51336e-05	269
bin	2.52048e-05	278
bin	2.5276e-05	273
bin	2.53472e-05	262
bin	2.54184e-05	271
bin	2.54896e-05	291
bin	2.55608e-05	261
bin	2.5632e-05	260
bin	2.57032e-05	243
bin	2.57744e-05	255
bin	2.58456e-05	263
bin	2.59168e-05	264
bin	2.5988e-05	242
bin	2.60592e-05	229
bin	2.61304e-05	221
bin	2.62016e-05	208
bin	2.62728e-05	228
bin	2.6344e-05	195
bin	2.64152e-05	234
bin	2.64864e-05	204
bin	2.65576e-05	217
bin	2.66288e-05	206
bin	2.67e-05	199
bin	2.67712e-05	228
bin	2.68424e-05	225
bin	2.69136e-05	219
bin	2.69848e-05	234
bin	2.7056e-05	240
bin	2.71272e-05	224
bin	2.71984e-05	233
bin	2.72696e-05	209
bin	2.73408e-05	219
bin	2.7412e-05	217
bin	2.74832e-05	158
bin	2.75544e-05	194
bin	2.76256e-05	215
bin	2.76968e-05	213
bin	2.7768e-05	183
bin	2.78392e-05	184
bin	2.79104e-05	189
bin	2.79816e-05	175
bin	2.80528e-05	172
bin	2.8124e-05	193
bin	2.81952e-05	184
bin	2.82664e-05	183
bin	2.83376e-05	176
bin	2.84088e-05	172
bin	2.848e-05	170
bin	2.85512e-05	170
bin	2.86224e-05	154
bin	2.86936e-05	162
bin	2.87648e-05	171
bin	2.8836e-05	150
bin	2.89072e-05	146
bin	2.89784e-05	156
bin	2.90496e-05	162
bin	2.91208e-05	148
bin	2.9192e-05	152
bin	2.92632e-05	139
bin	2.93344e-05	144
bin	2.94056e-05	142
bin	2.94768e-05	146
bin	2.9548e-05	141
bin	2.96192e-05	150
bin	2.96904e-05	164
bin	2.97616e-05	153
bin	2.98328e-05	131
bin	2.9904e-05	145
bin	2.99752e-05	132
bin	3.00464e-05	148
bin	3.01176e-05	129
bin	3.01888e-05	142
bin	3.026e-05	137
bin	3.03312e-05	144
bin	3.04024e-05	160
bin	3.04736e-05	171
bin	3.05448e-05	154
bin	3.0616e-05	146
bin	3.06872e-05	147
bin	3.07584e-05	135
bin	3.08296e-05	131
bin	3.09008e-05	134
bin	3.0972e-05	129
bin	3.10432e-05	130
bin	3.11144e-05	144
bin	3.11856e-05	139
bin	3.12568e-05	119
bin	3.1328e-05	131
bin	3.13992e-05	118
bin	3.14704e-05	103
bin	3.15416e-05	109
bin	3.16128e-05	104
bin	3.1684e-05	94
bin	3.17552e-05	100
bin	3.18264e-05	78
bin	3.18976e-05	98
bin	3.19688e-05	107
bin	3.204e-05	109
bin	3.21112e-05	101
bin	3.21824e-05	95
bin	3.22536e-05	90
bin	3.23248e-05	102
bin	3.2396e-05	95
bin	3.24672e-05	101
bin	3.25384e-05	109
bin	3.26096e-05	89
bin	3.26808e-05	84
bin	3.2752e-05	81
bin	3.28232e-05	91
bin	3.28944e-05	90
bin	3.29656e-05	99
bin	3.30368e-05	94
bin	3.3108e-05	112
bin	3.31792e-05	101
bin	3.32504e-05	92
bin	3.33216e-05	109
bin	3.33928e-05	97
bin	3.3464e-05	85
bin	3.35352e-05	81
bin	3.36064e-05	87
bin	3.36776e-05	88
bin	3.37488e-05	72
bin	3.382e-05	89
bin	3.38912e-05	71
bin	3.39624e-05	74
bin	3.40336e-05	76
bin	3.41048e-05	88
bin	3.4176e-05	73
bin	3.42472e-05	76
bin	3.43184e-05	70
bin	3.43896e-05	73
bin	3.44608e-05	78
bin	3.4532e-05	62
bin	3.46032e-05	74
bin	3.46744e-05	56
bin	3.47456e-05	43
bin	3.48168e-05	54
bin	3.4888e-05	52
bin	3.49592e-05	65
bin	3.50304e-05	47
bin	3.51016e-05	68
bin	3.51728e-05	62
bin	3.5244e-05	56
bin	3.53152e-05	78
bin	3.53864e-05	69
bin	3.54576e-05	75
bin	3.55288e-05	74
bin	3.56e-05	10790
statistic Torus3d_bub.timer 	"Life Times"
field count 6291456
field mean 3.7302182798955e-05
field stddev 4.6436579536017e-05
field sum 234.68504178358
field sqrsum 0.022320880557194
field min 5.2e-07
field max 0.001085617665657
bin	-INF	0
bin	0	93
bin	8.544e-07	2445
bin	1.7088e-06	7994
bin	2.5632e-06	16468
bin	3.4176e-06	25146
bin	4.272e-06	33199
bin	5.1264e-06	41151
bin	5.9808e-06	48452
bin	6.8352e-06	56428
bin	7.6896e-06	65054
bin	8.544e-06	73953
bin	9.3984e-06	84019
bin	1.02528e-05	91949
bin	1.11072e-05	94167
bin	1.19616e-05	99753
bin	1.2816e-05	106888
bin	1.36704e-05	113118
bin	1.45248e-05	121486
bin	1.53792e-05	128436
bin	1.62336e-05	136914
bin	1.7088e-05	146595
bin	1.79424e-05	155357
bin	1.87968e-05	165901
bin	1.96512e-05	176670
bin	2.05056e-05	188503
bin	2.136e-05	201828
bin	2.22144e-05	215854
bin	2.30688e-05	228568
bin	2.39232e-05	242600
bin	2.47776e-05	254076
bin	2.5632e-05	262131
bin	2.64864e-05	261958
bin	2.73408e-05	252315
bin	2.81952e-05	231909
bin	2.90496e-05	203607
bin	2.9904e-05	172954
bin	3.07584e-05	142133
bin	3.16128e-05	110557
bin	3.24672e-05	85404
bin	3.33216e-05	67702
bin	3.4176e-05	54201
bin	3.50304e-05	45183
bin	3.58848e-05	37503
bin	3.67392e-05	32036
bin	3.75936e-05	27280
bin	3.8448e-05	23985
bin	3.93024e-05	20814
bin	4.01568e-05	18069
bin	4.10112e-05	16184
bin	4.18656e-05	14298
bin	4.272e-05	13093
bin	4.35744e-05	12051
bin	4.44288e-05	11256
bin	4.52832e-05	10332
bin	4.61376e-05	9875
bin	4.6992e-05	9345
bin	4.78464e-05	8932
bin	4.87008e-05	8649
bin	4.95552e-05	8293
bin	5.04096e-05	8056
bin	5.1264e-05	7972
bin	5.21184e-05	7600
bin	5.29728e-05	7539
bin	5.38272e-05	7304
bin	5.46816e-05	7309
bin	5.5536e-05	7195
bin	5.63904e-05	6973
bin	5.72448e-05	6968
bin	5.80992e-05	6897
bin	5.89536e-05	6649
bin	5.9808e-05	6595
bin	6.06624e-05	6671
bin	6.15168e-05	6612
bin	6.23712e-05	6470
bin	6.32256e-05	6346
bin	6.408e-05	6038
bin	6.49344e-05	5793
bin	6.57888e-05	5542
bin	6.66432e-05	5469
bin	6.74976e-05	5087
bin	6.8352e-05	4911
bin	6.92064e-05	4638
bin	7.00608e-05	4482
bin	7.09152e-05	4220
bin	7.17696e-05	4223
bin	7.2624e-05	4046
bin	7.34784e-05	3821
bin	7.43328e-05	3739
bin	7.51872e-05	3726
bin	7.60416e-05	3715
bin	7.6896e-05	3489
bin	7.77504e-05	3596
bin	7.86048e-05	3530
bin	7.94592e-05	3523
bin	8.03136e-05	3614
bin	8.1168e-05	3574
bin	8.20224e-05	3493
bin	8.28768e-05	3553
bin	8.37312e-05	3610
bin	8.45856e-05	3608
bin	8.544e-05	3595
bin	8.62944e-05	3639
bin	8.71488e-05	3679
bin	8.80032e-05	3708
bin	8.88576e-05	3642
bin	8.9712e-05	3679
bin	9.05664e-05	3808
bin	9.14208e-05	3881
bin	9.22752e-05	3894
bin	9.31296e-05	3972
bin	9.3984e-05	3821
bin	9.48384e-05	3884
bin	9.56928e-05	3830
bin	9.65472e-05	3868
bin	9.74016e-05	3809
bin	9.8256e-05	3780
bin	9.91104e-05	3882
bin	9.99648e-05	3738
bin	0.0001008192	3681
bin	0.0001016736	3703
bin	0.000102528	3723
bin	0.0001033824	3630
bin	0.0001042368	3653
bin	0.0001050912	3752
bin	0.0001059456	3590
bin	0.0001068	3765
bin	0.0001076544	3750
bin	0.0001085088	3777
bin	0.0001093632	3848
bin	0.0001102176	3897
bin	0.000111072	3888
bin	0.0001119264	3895
bin	0.0001127808	3877
bin	0.0001136352	3876
bin	0.0001144896	3949
bin	0.000115344	3991
bin	0.0001161984	3977
bin	0.0001170528	4016
bin	0.0001179072	4064
bin	0.0001187616	4042
bin	0.000119616	4173
bin	0.0001204704	4014
bin	0.0001213248	4204
bin	0.0001221792	4114
bin	0.0001230336	4213
bin	0.000123888	4153
bin	0.0001247424	4273
bin	0.0001255968	4290
bin	0.0001264512	4217
bin	0.0001273056	4342
bin	0.00012816	4203
bin	0.0001290144	4202
bin	0.0001298688	4162
bin	0.0001307232	4109
bin	0.0001315776	4108
bin	0.000132432	4152
bin	0.0001332864	4012
bin	0.0001341408	3989
bin	0.0001349952	3973
bin	0.0001358496	3983
bin	0.000136704	4043
bin	0.0001375584	3986
bin	0.0001384128	3958
bin	0.0001392672	3918
bin	0.0001401216	3927
bin	0.000140976	3873
bin	0.0001418304	3944
bin	0.0001426848	3797
bin	0.0001435392	3778
bin	0.0001443936	3773
bin	0.000145248	3759
bin	0.0001461024	3821
bin	0.0001469568	3708
bin	0.0001478112	3733
bin	0.0001486656	3739
bin	0.00014952	3697
bin	0.0001503744	3639
bin	0.0001512288	3505
bin	0.0001520832	3651
bin	0.0001529376	3673
bin	0.000153792	3482
bin	0.0001546464	3514
bin	0.0001555008	3489
bin	0.0001563552	3455
bin	0.0001572096	3375
bin	0.000158064	3300
bin	0.0001589184	3145
bin	0.0001597728	3216
bin	0.0001606272	3272
bin	0.0001614816	3156
bin	0.000162336	3211
bin	0.0001631904	3146
bin	0.0001640448	3095
bin	0.0001648992	3014
bin	0.0001657536	3140
bin	0.000166608	3039
bin	0.0001674624	2983
bin	0.0001683168	2931
bin	0.0001691712	2959
bin	0.0001700256	2905
bin	0.00017088	2775
bin	0.0001717344	2808
bin	0.0001725888	2818
bin	0.0001734432	2726
bin	0.0001742976	2626
bin	0.000175152	2680
bin	0.0001760064	2621
bin	0.0001768608	2623
bin	0.0001777152	2600
bin	0.0001785696	2684
bin	0.000179424	2536
bin	0.0001802784	2445
bin	0.0001811328	2477
bin	0.0001819872	2462
bin	0.0001828416	2361
bin	0.000183696	2370
bin	0.0001845504	2421
bin	0.0001854048	2359
bin	0.0001862592	2287
bin	0.0001871136	2227
bin	0.000187968	2283
bin	0.0001888224	2201
bin	0.0001896768	2161
bin	0.0001905312	2106
bin	0.0001913856	2121
bin	0.00019224	2135
bin	0.0001930944	2063
bin	0.0001939488	2048
bin	0.0001948032	2044
bin	0.0001956576	1941
bin	0.000196512	1901
bin	0.0001973664	1896
bin	0.0001982208	1834
bin	0.0001990752	1825
bin	0.0001999296	1797
bin	0.000200784	1777
bin	0.0002016384	1778
bin	0.0002024928	1670
bin	0.0002033472	1694
bin	0.0002042016	1651
bin	0.000205056	1635
bin	0.0002059104	1640
bin	0.0002067648	1586
bin	0.0002076192	1576
bin	0.0002084736	1539
bin	0.000209328	1495
bin	0.0002101824	1518
bin	0.0002110368	1554
bin	0.0002118912	1457
bin	0.0002127456	1524
bin	0.0002136	1444
bin	0.0002144544	1485
bin	0.0002153088	1425
bin	0.0002161632	1468
bin	0.0002170176	1399
bin	0.000217872	1360
bin	0.0002187264	1294
bin	0.0002195808	1330
bin	0.0002204352	1259
bin	0.0002212896	1267
bin	0.000222144	1258
bin	0.0002229984	1177
bin	0.0002238528	1221
bin	0.0002247072	1160
bin	0.0002255616	1118
bin	0.000226416	1124
bin	0.0002272704	1096
bin	0.0002281248	1094
bin	0.0002289792	1103
bin	0.0002298336	1066
bin	0.000230688	990
bin	0.0002315424	1035
bin	0.0002323968	989
bin	0.0002332512	1013
bin	0.0002341056	1014
bin	0.00023496	957
bin	0.0002358144	948
bin	0.0002366688	914
bin	0.0002375232	889
bin	0.0002383776	912
bin	0.000239232	884
bin	0.0002400864	918
bin	0.0002409408	883
bin	0.0002417952	823
bin	0.0002426496	836
bin	0.000243504	852
bin	0.0002443584	844
bin	0.0002452128	822
bin	0.0002460672	780
bin	0.0002469216	782
bin	0.000247776	749
bin	0.0002486304	773
bin	0.0002494848	721
bin	0.0002503392	732
bin	0.0002511936	702
bin	0.000252048	714
bin	0.0002529024	689
bin	0.0002537568	671
bin	0.0002546112	704
bin	0.0002554656	669
bin	0.00025632	676
bin	0.0002571744	572
bin	0.0002580288	646
bin	0.0002588832	563
bin	0.0002597376	610
bin	0.000260592	610
bin	0.0002614464	584
bin	0.0002623008	619
bin	0.0002631552	534
bin	0.0002640096	575
bin	0.000264864	543
bin	0.0002657184	534
bin	0.0002665728	538
bin	0.0002674272	530
bin	0.0002682816	527
bin	0.000269136	545
bin	0.0002699904	489
bin	0.0002708448	475
bin	0.0002716992	501
bin	0.0002725536	539
bin	0.000273408	530
bin	0.0002742624	509
bin	0.0002751168	461
bin	0.0002759712	472
bin	0.0002768256	465
bin	0.00027768	443
bin	0.0002785344	426
bin	0.0002793888	459
bin	0.0002802432	428
bin	0.0002810976	437
bin	0.000281952	424
bin	0.0002828064	420
bin	0.0002836608	386
bin	0.0002845152	395
bin	0.0002853696	404
bin	0.000286224	359
bin	0.0002870784	366
bin	0.0002879328	365
bin	0.0002887872	332
bin	0.0002896416	345
bin	0.000290496	330
bin	0.0002913504	345
bin	0.0002922048	334
bin	0.0002930592	320
bin	0.0002939136	345
bin	0.000294768	315
bin	0.0002956224	327
bin	0.0002964768	318
bin	0.0002973312	318
bin	0.0002981856	288
bin	0.00029904	317
bin	0.0002998944	318
bin	0.0003007488	343
bin	0.0003016032	282
bin	0.0003024576	257
bin	0.000303312	288
bin	0.0003041664	284
bin	0.0003050208	259
bin	0.0003058752	290
bin	0.0003067296	278
bin	0.000307584	247
bin	0.0003084384	260
bin	0.0003092928	235
bin	0.0003101472	248
bin	0.0003110016	266
bin	0.000311856	234
bin	0.0003127104	253
bin	0.0003135648	239
bin	0.0003144192	221
bin	0.0003152736	213
bin	0.000316128	198
bin	0.0003169824	215
bin	0.0003178368	244
bin	0.0003186912	204
bin	0.0003195456	208
bin	0.0003204	197
bin	0.0003212544	200
bin	0.0003221088	179
bin	0.0003229632	198
bin	0.0003238176	174
bin	0.000324672	185
bin	0.0003255264	162
bin	0.0003263808	182
bin	0.0003272352	184
bin	0.0003280896	184
bin	0.000328944	194
bin	0.0003297984	184
bin	0.0003306528	191
bin	0.0003315072	197
bin	0.0003323616	184
bin	0.000333216	199
bin	0.0003340704	207
bin	0.0003349248	182
bin	0.0003357792	181
bin	0.0003366336	196
bin	0.000337488	184
bin	0.0003383424	166
bin	0.0003391968	172
bin	0.0003400512	162
bin	0.0003409056	150
bin	0.00034176	152
bin	0.0003426144	151
bin	0.0003434688	130
bin	0.0003443232	144
bin	0.0003451776	135
bin	0.000346032	124
bin	0.0003468864	136
bin	0.0003477408	131
bin	0.0003485952	117
bin	0.0003494496	119
bin	0.000350304	125
bin	0.0003511584	122
bin	0.0003520128	144
bin	0.0003528672	112
bin	0.0003537216	147
bin	0.000354576	131
bin	0.0003554304	115
bin	0.0003562848	125
bin	0.0003571392	123
bin	0.0003579936	117
bin	0.000358848	123
bin	0.0003597024	131
bin	0.0003605568	130
bin	0.0003614112	111
bin	0.0003622656	128
bin	0.00036312	113
bin	0.0003639744	113
bin	0.0003648288	126
bin	0.0003656832	101
bin	0.0003665376	114
bin	0.000367392	102
bin	0.0003682464	78
bin	0.0003691008	97
bin	0.0003699552	103
bin	0.0003708096	95
bin	0.000371664	101
bin	0.0003725184	94
bin	0.0003733728	93
bin	0.0003742272	104
bin	0.0003750816	106
bin	0.000375936	94
bin	0.0003767904	96
bin	0.0003776448	99
bin	0.0003784992	100
bin	0.0003793536	105
bin	0.000380208	110
bin	0.0003810624	94
bin	0.0003819168	83
bin	0.0003827712	82
bin	0.0003836256	76
bin	0.00038448	79
bin	0.0003853344	100
bin	0.0003861888	97
bin	0.0003870432	77
bin	0.0003878976	81
bin	0.000388752	84
bin	0.0003896064	83
bin	0.0003904608	79
bin	0.0003913152	65
bin	0.0003921696	74
bin	0.000393024	68
bin	0.0003938784	85
bin	0.0003947328	67
bin	0.0003955872	79
bin	0.0003964416	64
bin	0.000397296	72
bin	0.0003981504	71
bin	0.0003990048	77
bin	0.0003998592	74
bin	0.0004007136	67
bin	0.000401568	71
bin	0.0004024224	64
bin	0.0004032768	70
bin	0.0004041312	83
bin	0.0004049856	60
bin	0.00040584	66
bin	0.0004066944	64
bin	0.0004075488	64
bin	0.0004084032	80
bin	0.0004092576	63
bin	0.000410112	58
bin	0.0004109664	67
bin	0.0004118208	66
bin	0.0004126752	62
bin	0.0004135296	61
bin	0.000414384	57
bin	0.0004152384	67
bin	0.0004160928	49
bin	0.0004169472	50
bin	0.0004178016	49
bin	0.000418656	40
bin	0.0004195104	55
bin	0.0004203648	55
bin	0.0004212192	48
bin	0.0004220736	61
bin	0.000422928	63
bin	0.0004237824	61
bin	0.0004246368	36
bin	0.0004254912	50
bin	0.0004263456	47
bin	0.0004272	4442
