version 2
run Permutation-73-20120711-01:20:32-28185
attr alg 1
attr buf 8
attr configname Permutation
attr datetime 20120711-01:20:32
attr delta 0.8
attr experiment Permutation
attr ext false
attr inifile altro.ini
attr iterationvars "$buf=8, $ext=false, $ofedge=2, $delta=0.8, $alg=1"
attr iterationvars2 "$buf=8, $ext=false, $ofedge=2, $delta=0.8, $alg=1, $repetition=0"
attr measurement "$buf=8, $ext=false, $ofedge=2, $delta=0.8, $alg=1"
attr network Torus3d_bub
attr ofedge 2
attr processid 28185
attr repetition 0
attr replication #0
attr resultdir altro-results
attr runnumber 73
attr seedset 73

scalar . 	alg 	1
scalar . 	buf 	8
scalar . 	delta 	0.8
scalar . 	ofedge 	2
scalar Torus3d_bub.timer 	#endTime 	0.003900381660998
scalar Torus3d_bub.timer 	#totalHops 	90753427
scalar Torus3d_bub.timer 	#totalPacks 	6291456
scalar Torus3d_bub.timer 	#totalDerouted 	2055238
scalar Torus3d_bub.timer 	#totalOutFlanked 	2055238
scalar Torus3d_bub.timer 	#totalCQRed 	0
scalar Torus3d_bub.timer 	#LB 	0.000786432
scalar Torus3d_bub.timer 	#ratio 	0.20162949894467
statistic Torus3d_bub.timer 	"Hop Times"
field count 6291456
field mean 8.9558130014223e-05
field stddev 0.00010543247888829
field sum 563.45103442676
field sqrsum 0.1203974826214
field min 3.77125e-07
field max 0.003074947661529
bin	-INF	0
bin	0	0
bin	7.12e-08	0
bin	1.424e-07	0
bin	2.136e-07	0
bin	2.848e-07	0
bin	3.56e-07	199
bin	4.272e-07	1654
bin	4.984e-07	4660
bin	5.696e-07	7651
bin	6.408e-07	11254
bin	7.12e-07	14937
bin	7.832e-07	18038
bin	8.544e-07	20640
bin	9.256e-07	23285
bin	9.968e-07	25417
bin	1.068e-06	27840
bin	1.1392e-06	31126
bin	1.2104e-06	35415
bin	1.2816e-06	39915
bin	1.3528e-06	45378
bin	1.424e-06	50545
bin	1.4952e-06	55464
bin	1.5664e-06	59649
bin	1.6376e-06	62612
bin	1.7088e-06	64335
bin	1.78e-06	64606
bin	1.8512e-06	63920
bin	1.9224e-06	61981
bin	1.9936e-06	59689
bin	2.0648e-06	56508
bin	2.136e-06	53166
bin	2.2072e-06	49333
bin	2.2784e-06	45723
bin	2.3496e-06	42388
bin	2.4208e-06	39205
bin	2.492e-06	35916
bin	2.5632e-06	32657
bin	2.6344e-06	30224
bin	2.7056e-06	28015
bin	2.7768e-06	25700
bin	2.848e-06	23784
bin	2.9192e-06	22166
bin	2.9904e-06	20291
bin	3.0616e-06	18804
bin	3.1328e-06	17562
bin	3.204e-06	16424
bin	3.2752e-06	15375
bin	3.3464e-06	14419
bin	3.4176e-06	13544
bin	3.4888e-06	12595
bin	3.56e-06	12007
bin	3.6312e-06	11402
bin	3.7024e-06	10797
bin	3.7736e-06	10258
bin	3.8448e-06	9731
bin	3.916e-06	9327
bin	3.9872e-06	8659
bin	4.0584e-06	8422
bin	4.1296e-06	8145
bin	4.2008e-06	7777
bin	4.272e-06	7377
bin	4.3432e-06	7183
bin	4.4144e-06	6884
bin	4.4856e-06	6717
bin	4.5568e-06	6502
bin	4.628e-06	6287
bin	4.6992e-06	6128
bin	4.7704e-06	6001
bin	4.8416e-06	5788
bin	4.9128e-06	5655
bin	4.984e-06	5450
bin	5.0552e-06	5306
bin	5.1264e-06	5368
bin	5.1976e-06	5186
bin	5.2688e-06	4990
bin	5.34e-06	5021
bin	5.4112e-06	4777
bin	5.4824e-06	4685
bin	5.5536e-06	4567
bin	5.6248e-06	4588
bin	5.696e-06	4443
bin	5.7672e-06	4320
bin	5.8384e-06	4288
bin	5.9096e-06	4299
bin	5.9808e-06	4272
bin	6.052e-06	4146
bin	6.1232e-06	4127
bin	6.1944e-06	4050
bin	6.2656e-06	4086
bin	6.3368e-06	3949
bin	6.408e-06	3839
bin	6.4792e-06	3769
bin	6.5504e-06	3650
bin	6.6216e-06	3769
bin	6.6928e-06	3726
bin	6.764e-06	3645
bin	6.8352e-06	3601
bin	6.9064e-06	3573
bin	6.9776e-06	3516
bin	7.0488e-06	3454
bin	7.12e-06	3479
bin	7.1912e-06	3346
bin	7.2624e-06	3259
bin	7.3336e-06	3331
bin	7.4048e-06	3304
bin	7.476e-06	3169
bin	7.5472e-06	3146
bin	7.6184e-06	3171
bin	7.6896e-06	3200
bin	7.7608e-06	3228
bin	7.832e-06	3226
bin	7.9032e-06	3066
bin	7.9744e-06	3172
bin	8.0456e-06	3159
bin	8.1168e-06	3038
bin	8.188e-06	3008
bin	8.2592e-06	3007
bin	8.3304e-06	2985
bin	8.4016e-06	3063
bin	8.4728e-06	2941
bin	8.544e-06	2950
bin	8.6152e-06	2961
bin	8.6864e-06	2926
bin	8.7576e-06	2901
bin	8.8288e-06	2874
bin	8.9e-06	2855
bin	8.9712e-06	2718
bin	9.0424e-06	2734
bin	9.1136e-06	2819
bin	9.1848e-06	2808
bin	9.256e-06	2704
bin	9.3272e-06	2574
bin	9.3984e-06	2650
bin	9.4696e-06	2722
bin	9.5408e-06	2640
bin	9.612e-06	2676
bin	9.6832e-06	2599
bin	9.7544e-06	2553
bin	9.8256e-06	2619
bin	9.8968e-06	2603
bin	9.968e-06	2595
bin	1.00392e-05	2567
bin	1.01104e-05	2564
bin	1.01816e-05	2561
bin	1.02528e-05	2504
bin	1.0324e-05	2481
bin	1.03952e-05	2534
bin	1.04664e-05	2384
bin	1.05376e-05	2441
bin	1.06088e-05	2454
bin	1.068e-05	2329
bin	1.07512e-05	2422
bin	1.08224e-05	2406
bin	1.08936e-05	2355
bin	1.09648e-05	2379
bin	1.1036e-05	2269
bin	1.11072e-05	2336
bin	1.11784e-05	2246
bin	1.12496e-05	2177
bin	1.13208e-05	2285
bin	1.1392e-05	2300
bin	1.14632e-05	2183
bin	1.15344e-05	2281
bin	1.16056e-05	2185
bin	1.16768e-05	2165
bin	1.1748e-05	2198
bin	1.18192e-05	2161
bin	1.18904e-05	2226
bin	1.19616e-05	2239
bin	1.20328e-05	2199
bin	1.2104e-05	2120
bin	1.21752e-05	2054
bin	1.22464e-05	2048
bin	1.23176e-05	2070
bin	1.23888e-05	2075
bin	1.246e-05	2099
bin	1.25312e-05	2068
bin	1.26024e-05	1999
bin	1.26736e-05	2085
bin	1.27448e-05	1974
bin	1.2816e-05	2096
bin	1.28872e-05	2063
bin	1.29584e-05	2049
bin	1.30296e-05	1998
bin	1.31008e-05	1969
bin	1.3172e-05	1965
bin	1.32432e-05	1929
bin	1.33144e-05	1894
bin	1.33856e-05	1953
bin	1.34568e-05	1948
bin	1.3528e-05	2004
bin	1.35992e-05	1894
bin	1.36704e-05	1827
bin	1.37416e-05	1909
bin	1.38128e-05	1907
bin	1.3884e-05	1912
bin	1.39552e-05	1863
bin	1.40264e-05	1829
bin	1.40976e-05	1873
bin	1.41688e-05	1788
bin	1.424e-05	1900
bin	1.43112e-05	1829
bin	1.43824e-05	1857
bin	1.44536e-05	1824
bin	1.45248e-05	1870
bin	1.4596e-05	1875
bin	1.46672e-05	1793
bin	1.47384e-05	1816
bin	1.48096e-05	1775
bin	1.48808e-05	1809
bin	1.4952e-05	1863
bin	1.50232e-05	1803
bin	1.50944e-05	1825
bin	1.51656e-05	1752
bin	1.52368e-05	1753
bin	1.5308e-05	1739
bin	1.53792e-05	1703
bin	1.54504e-05	1761
bin	1.55216e-05	1766
bin	1.55928e-05	1803
bin	1.5664e-05	1791
bin	1.57352e-05	1792
bin	1.58064e-05	1844
bin	1.58776e-05	1813
bin	1.59488e-05	1714
bin	1.602e-05	1706
bin	1.60912e-05	1750
bin	1.61624e-05	1750
bin	1.62336e-05	1697
bin	1.63048e-05	1750
bin	1.6376e-05	1770
bin	1.64472e-05	1711
bin	1.65184e-05	1747
bin	1.65896e-05	1739
bin	1.66608e-05	1779
bin	1.6732e-05	1756
bin	1.68032e-05	1709
bin	1.68744e-05	1714
bin	1.69456e-05	1763
bin	1.70168e-05	1779
bin	1.7088e-05	1750
bin	1.71592e-05	1728
bin	1.72304e-05	1684
bin	1.73016e-05	1740
bin	1.73728e-05	1730
bin	1.7444e-05	1747
bin	1.75152e-05	1692
bin	1.75864e-05	1701
bin	1.76576e-05	1606
bin	1.77288e-05	1630
bin	1.78e-05	1665
bin	1.78712e-05	1694
bin	1.79424e-05	1640
bin	1.80136e-05	1670
bin	1.80848e-05	1649
bin	1.8156e-05	1628
bin	1.82272e-05	1630
bin	1.82984e-05	1613
bin	1.83696e-05	1617
bin	1.84408e-05	1659
bin	1.8512e-05	1560
bin	1.85832e-05	1562
bin	1.86544e-05	1526
bin	1.87256e-05	1557
bin	1.87968e-05	1574
bin	1.8868e-05	1560
bin	1.89392e-05	1628
bin	1.90104e-05	1615
bin	1.90816e-05	1637
bin	1.91528e-05	1603
bin	1.9224e-05	1566
bin	1.92952e-05	1600
bin	1.93664e-05	1534
bin	1.94376e-05	1594
bin	1.95088e-05	1585
bin	1.958e-05	1578
bin	1.96512e-05	1518
bin	1.97224e-05	1506
bin	1.97936e-05	1473
bin	1.98648e-05	1456
bin	1.9936e-05	1536
bin	2.00072e-05	1531
bin	2.00784e-05	1559
bin	2.01496e-05	1525
bin	2.02208e-05	1595
bin	2.0292e-05	1518
bin	2.03632e-05	1538
bin	2.04344e-05	1539
bin	2.05056e-05	1522
bin	2.05768e-05	1447
bin	2.0648e-05	1491
bin	2.07192e-05	1445
bin	2.07904e-05	1406
bin	2.08616e-05	1402
bin	2.09328e-05	1475
bin	2.1004e-05	1492
bin	2.10752e-05	1442
bin	2.11464e-05	1430
bin	2.12176e-05	1438
bin	2.12888e-05	1342
bin	2.136e-05	1446
bin	2.14312e-05	1442
bin	2.15024e-05	1501
bin	2.15736e-05	1462
bin	2.16448e-05	1465
bin	2.1716e-05	1495
bin	2.17872e-05	1456
bin	2.18584e-05	1404
bin	2.19296e-05	1372
bin	2.20008e-05	1367
bin	2.2072e-05	1497
bin	2.21432e-05	1371
bin	2.22144e-05	1394
bin	2.22856e-05	1391
bin	2.23568e-05	1361
bin	2.2428e-05	1351
bin	2.24992e-05	1390
bin	2.25704e-05	1345
bin	2.26416e-05	1344
bin	2.27128e-05	1435
bin	2.2784e-05	1465
bin	2.28552e-05	1503
bin	2.29264e-05	1453
bin	2.29976e-05	1442
bin	2.30688e-05	1448
bin	2.314e-05	1419
bin	2.32112e-05	1521
bin	2.32824e-05	1487
bin	2.33536e-05	1410
bin	2.34248e-05	1505
bin	2.3496e-05	1465
bin	2.35672e-05	1364
bin	2.36384e-05	1385
bin	2.37096e-05	1371
bin	2.37808e-05	1320
bin	2.3852e-05	1310
bin	2.39232e-05	1378
bin	2.39944e-05	1381
bin	2.40656e-05	1421
bin	2.41368e-05	1419
bin	2.4208e-05	1384
bin	2.42792e-05	1431
bin	2.43504e-05	1399
bin	2.44216e-05	1407
bin	2.44928e-05	1420
bin	2.4564e-05	1330
bin	2.46352e-05	1336
bin	2.47064e-05	1386
bin	2.47776e-05	1303
bin	2.48488e-05	1342
bin	2.492e-05	1371
bin	2.49912e-05	1411
bin	2.50624e-05	1383
bin	2.51336e-05	1364
bin	2.52048e-05	1324
bin	2.5276e-05	1453
bin	2.53472e-05	1395
bin	2.54184e-05	1368
bin	2.54896e-05	1375
bin	2.55608e-05	1440
bin	2.5632e-05	1400
bin	2.57032e-05	1386
bin	2.57744e-05	1350
bin	2.58456e-05	1323
bin	2.59168e-05	1326
bin	2.5988e-05	1339
bin	2.60592e-05	1419
bin	2.61304e-05	1375
bin	2.62016e-05	1388
bin	2.62728e-05	1335
bin	2.6344e-05	1382
bin	2.64152e-05	1350
bin	2.64864e-05	1332
bin	2.65576e-05	1358
bin	2.66288e-05	1308
bin	2.67e-05	1312
bin	2.67712e-05	1308
bin	2.68424e-05	1326
bin	2.69136e-05	1287
bin	2.69848e-05	1339
bin	2.7056e-05	1289
bin	2.71272e-05	1293
bin	2.71984e-05	1290
bin	2.72696e-05	1305
bin	2.73408e-05	1339
bin	2.7412e-05	1405
bin	2.74832e-05	1379
bin	2.75544e-05	1341
bin	2.76256e-05	1318
bin	2.76968e-05	1259
bin	2.7768e-05	1304
bin	2.78392e-05	1351
bin	2.79104e-05	1303
bin	2.79816e-05	1401
bin	2.80528e-05	1332
bin	2.8124e-05	1296
bin	2.81952e-05	1213
bin	2.82664e-05	1276
bin	2.83376e-05	1257
bin	2.84088e-05	1288
bin	2.848e-05	1276
bin	2.85512e-05	1277
bin	2.86224e-05	1258
bin	2.86936e-05	1239
bin	2.87648e-05	1256
bin	2.8836e-05	1315
bin	2.89072e-05	1277
bin	2.89784e-05	1251
bin	2.90496e-05	1309
bin	2.91208e-05	1344
bin	2.9192e-05	1388
bin	2.92632e-05	1310
bin	2.93344e-05	1288
bin	2.94056e-05	1279
bin	2.94768e-05	1293
bin	2.9548e-05	1301
bin	2.96192e-05	1299
bin	2.96904e-05	1304
bin	2.97616e-05	1207
bin	2.98328e-05	1254
bin	2.9904e-05	1277
bin	2.99752e-05	1248
bin	3.00464e-05	1286
bin	3.01176e-05	1240
bin	3.01888e-05	1200
bin	3.026e-05	1287
bin	3.03312e-05	1306
bin	3.04024e-05	1326
bin	3.04736e-05	1334
bin	3.05448e-05	1293
bin	3.0616e-05	1257
bin	3.06872e-05	1316
bin	3.07584e-05	1302
bin	3.08296e-05	1326
bin	3.09008e-05	1304
bin	3.0972e-05	1237
bin	3.10432e-05	1174
bin	3.11144e-05	1254
bin	3.11856e-05	1319
bin	3.12568e-05	1377
bin	3.1328e-05	1363
bin	3.13992e-05	1359
bin	3.14704e-05	1368
bin	3.15416e-05	1314
bin	3.16128e-05	1233
bin	3.1684e-05	1295
bin	3.17552e-05	1326
bin	3.18264e-05	1298
bin	3.18976e-05	1271
bin	3.19688e-05	1313
bin	3.204e-05	1260
bin	3.21112e-05	1273
bin	3.21824e-05	1306
bin	3.22536e-05	1370
bin	3.23248e-05	1326
bin	3.2396e-05	1329
bin	3.24672e-05	1400
bin	3.25384e-05	1307
bin	3.26096e-05	1322
bin	3.26808e-05	1323
bin	3.2752e-05	1312
bin	3.28232e-05	1295
bin	3.28944e-05	1337
bin	3.29656e-05	1350
bin	3.30368e-05	1274
bin	3.3108e-05	1247
bin	3.31792e-05	1310
bin	3.32504e-05	1250
bin	3.33216e-05	1325
bin	3.33928e-05	1362
bin	3.3464e-05	1326
bin	3.35352e-05	1305
bin	3.36064e-05	1290
bin	3.36776e-05	1325
bin	3.37488e-05	1261
bin	3.382e-05	1311
bin	3.38912e-05	1298
bin	3.39624e-05	1297
bin	3.40336e-05	1353
bin	3.41048e-05	1321
bin	3.4176e-05	1353
bin	3.42472e-05	1398
bin	3.43184e-05	1278
bin	3.43896e-05	1309
bin	3.44608e-05	1359
bin	3.4532e-05	1356
bin	3.46032e-05	1362
bin	3.46744e-05	1358
bin	3.47456e-05	1430
bin	3.48168e-05	1364
bin	3.4888e-05	1363
bin	3.49592e-05	1327
bin	3.50304e-05	1362
bin	3.51016e-05	1307
bin	3.51728e-05	1322
bin	3.5244e-05	1341
bin	3.53152e-05	1358
bin	3.53864e-05	1348
bin	3.54576e-05	1409
bin	3.55288e-05	1359
bin	3.56e-05	3855984
statistic Torus3d_bub.timer 	"Life Times"
field count 6291456
field mean 0.0011832425018228
field stddev 0.0010404928339049
field sum 7444.3181375478
field sqrsum 15.619722209596
field min 5.2e-07
field max 0.003675091994333
bin	-INF	0
bin	0	27
bin	8.544e-07	677
bin	1.7088e-06	2082
bin	2.5632e-06	4078
bin	3.4176e-06	6342
bin	4.272e-06	8409
bin	5.1264e-06	10778
bin	5.9808e-06	13252
bin	6.8352e-06	15372
bin	7.6896e-06	17729
bin	8.544e-06	20516
bin	9.3984e-06	22749
bin	1.02528e-05	24875
bin	1.11072e-05	25734
bin	1.19616e-05	27922
bin	1.2816e-05	29214
bin	1.36704e-05	30845
bin	1.45248e-05	32374
bin	1.53792e-05	33648
bin	1.62336e-05	35539
bin	1.7088e-05	36711
bin	1.79424e-05	38536
bin	1.87968e-05	40688
bin	1.96512e-05	42454
bin	2.05056e-05	44138
bin	2.136e-05	46446
bin	2.22144e-05	48653
bin	2.30688e-05	50443
bin	2.39232e-05	52319
bin	2.47776e-05	53185
bin	2.5632e-05	54139
bin	2.64864e-05	54181
bin	2.73408e-05	53166
bin	2.81952e-05	52242
bin	2.90496e-05	50122
bin	2.9904e-05	47541
bin	3.07584e-05	44875
bin	3.16128e-05	40480
bin	3.24672e-05	35548
bin	3.33216e-05	31823
bin	3.4176e-05	28159
bin	3.50304e-05	25419
bin	3.58848e-05	22646
bin	3.67392e-05	20420
bin	3.75936e-05	18181
bin	3.8448e-05	16438
bin	3.93024e-05	14713
bin	4.01568e-05	13339
bin	4.10112e-05	12083
bin	4.18656e-05	10738
bin	4.272e-05	9885
bin	4.35744e-05	9227
bin	4.44288e-05	8777
bin	4.52832e-05	8323
bin	4.61376e-05	7972
bin	4.6992e-05	7691
bin	4.78464e-05	7251
bin	4.87008e-05	7177
bin	4.95552e-05	7046
bin	5.04096e-05	6832
bin	5.1264e-05	6652
bin	5.21184e-05	6420
bin	5.29728e-05	6436
bin	5.38272e-05	6298
bin	5.46816e-05	6149
bin	5.5536e-05	6322
bin	5.63904e-05	6136
bin	5.72448e-05	6143
bin	5.80992e-05	5995
bin	5.89536e-05	5938
bin	5.9808e-05	6034
bin	6.06624e-05	6007
bin	6.15168e-05	6003
bin	6.23712e-05	5935
bin	6.32256e-05	5778
bin	6.408e-05	5437
bin	6.49344e-05	5403
bin	6.57888e-05	5153
bin	6.66432e-05	4968
bin	6.74976e-05	4853
bin	6.8352e-05	4753
bin	6.92064e-05	4623
bin	7.00608e-05	4338
bin	7.09152e-05	4228
bin	7.17696e-05	4165
bin	7.2624e-05	3890
bin	7.34784e-05	3819
bin	7.43328e-05	3602
bin	7.51872e-05	3545
bin	7.60416e-05	3489
bin	7.6896e-05	3461
bin	7.77504e-05	3418
bin	7.86048e-05	3277
bin	7.94592e-05	3233
bin	8.03136e-05	3344
bin	8.1168e-05	3348
bin	8.20224e-05	3301
bin	8.28768e-05	3244
bin	8.37312e-05	3234
bin	8.45856e-05	3272
bin	8.544e-05	3279
bin	8.62944e-05	3265
bin	8.71488e-05	3233
bin	8.80032e-05	3285
bin	8.88576e-05	3250
bin	8.9712e-05	3249
bin	9.05664e-05	3332
bin	9.14208e-05	3313
bin	9.22752e-05	3287
bin	9.31296e-05	3317
bin	9.3984e-05	3231
bin	9.48384e-05	3265
bin	9.56928e-05	3185
bin	9.65472e-05	3086
bin	9.74016e-05	3086
bin	9.8256e-05	3002
bin	9.91104e-05	2964
bin	9.99648e-05	3000
bin	0.0001008192	2834
bin	0.0001016736	2820
bin	0.000102528	2718
bin	0.0001033824	2716
bin	0.0001042368	2685
bin	0.0001050912	2569
bin	0.0001059456	2555
bin	0.0001068	2560
bin	0.0001076544	2451
bin	0.0001085088	2458
bin	0.0001093632	2511
bin	0.0001102176	2396
bin	0.000111072	2414
bin	0.0001119264	2382
bin	0.0001127808	2432
bin	0.0001136352	2507
bin	0.0001144896	2508
bin	0.000115344	2486
bin	0.0001161984	2480
bin	0.0001170528	2498
bin	0.0001179072	2524
bin	0.0001187616	2514
bin	0.000119616	2569
bin	0.0001204704	2550
bin	0.0001213248	2552
bin	0.0001221792	2536
bin	0.0001230336	2599
bin	0.000123888	2453
bin	0.0001247424	2457
bin	0.0001255968	2512
bin	0.0001264512	2482
bin	0.0001273056	2417
bin	0.00012816	2456
bin	0.0001290144	2438
bin	0.0001298688	2386
bin	0.0001307232	2385
bin	0.0001315776	2323
bin	0.000132432	2308
bin	0.0001332864	2257
bin	0.0001341408	2224
bin	0.0001349952	2242
bin	0.0001358496	2240
bin	0.000136704	2255
bin	0.0001375584	2221
bin	0.0001384128	2162
bin	0.0001392672	2120
bin	0.0001401216	2141
bin	0.000140976	2122
bin	0.0001418304	2108
bin	0.0001426848	2143
bin	0.0001435392	2070
bin	0.0001443936	2075
bin	0.000145248	2080
bin	0.0001461024	2140
bin	0.0001469568	2082
bin	0.0001478112	2165
bin	0.0001486656	2166
bin	0.00014952	2154
bin	0.0001503744	2127
bin	0.0001512288	2167
bin	0.0001520832	2129
bin	0.0001529376	2118
bin	0.000153792	2161
bin	0.0001546464	2041
bin	0.0001555008	2175
bin	0.0001563552	2133
bin	0.0001572096	2069
bin	0.000158064	2121
bin	0.0001589184	2109
bin	0.0001597728	1958
bin	0.0001606272	1999
bin	0.0001614816	2008
bin	0.000162336	1886
bin	0.0001631904	1889
bin	0.0001640448	1808
bin	0.0001648992	1819
bin	0.0001657536	1793
bin	0.000166608	1801
bin	0.0001674624	1810
bin	0.0001683168	1840
bin	0.0001691712	1822
bin	0.0001700256	1794
bin	0.00017088	1868
bin	0.0001717344	1798
bin	0.0001725888	1784
bin	0.0001734432	1835
bin	0.0001742976	1827
bin	0.000175152	1875
bin	0.0001760064	1836
bin	0.0001768608	1851
bin	0.0001777152	1840
bin	0.0001785696	1768
bin	0.000179424	1814
bin	0.0001802784	1782
bin	0.0001811328	1690
bin	0.0001819872	1706
bin	0.0001828416	1714
bin	0.000183696	1710
bin	0.0001845504	1724
bin	0.0001854048	1688
bin	0.0001862592	1742
bin	0.0001871136	1783
bin	0.000187968	1723
bin	0.0001888224	1742
bin	0.0001896768	1734
bin	0.0001905312	1689
bin	0.0001913856	1662
bin	0.00019224	1639
bin	0.0001930944	1610
bin	0.0001939488	1655
bin	0.0001948032	1546
bin	0.0001956576	1586
bin	0.000196512	1579
bin	0.0001973664	1590
bin	0.0001982208	1538
bin	0.0001990752	1487
bin	0.0001999296	1523
bin	0.000200784	1534
bin	0.0002016384	1496
bin	0.0002024928	1546
bin	0.0002033472	1520
bin	0.0002042016	1539
bin	0.000205056	1477
bin	0.0002059104	1537
bin	0.0002067648	1513
bin	0.0002076192	1504
bin	0.0002084736	1497
bin	0.000209328	1502
bin	0.0002101824	1463
bin	0.0002110368	1525
bin	0.0002118912	1482
bin	0.0002127456	1602
bin	0.0002136	1597
bin	0.0002144544	1532
bin	0.0002153088	1471
bin	0.0002161632	1522
bin	0.0002170176	1580
bin	0.000217872	1476
bin	0.0002187264	1512
bin	0.0002195808	1442
bin	0.0002204352	1397
bin	0.0002212896	1485
bin	0.000222144	1399
bin	0.0002229984	1418
bin	0.0002238528	1446
bin	0.0002247072	1393
bin	0.0002255616	1369
bin	0.000226416	1424
bin	0.0002272704	1407
bin	0.0002281248	1391
bin	0.0002289792	1386
bin	0.0002298336	1344
bin	0.000230688	1409
bin	0.0002315424	1412
bin	0.0002323968	1409
bin	0.0002332512	1423
bin	0.0002341056	1357
bin	0.00023496	1286
bin	0.0002358144	1359
bin	0.0002366688	1373
bin	0.0002375232	1397
bin	0.0002383776	1368
bin	0.000239232	1379
bin	0.0002400864	1381
bin	0.0002409408	1333
bin	0.0002417952	1336
bin	0.0002426496	1283
bin	0.000243504	1274
bin	0.0002443584	1287
bin	0.0002452128	1340
bin	0.0002460672	1432
bin	0.0002469216	1409
bin	0.000247776	1414
bin	0.0002486304	1358
bin	0.0002494848	1366
bin	0.0002503392	1385
bin	0.0002511936	1393
bin	0.000252048	1359
bin	0.0002529024	1313
bin	0.0002537568	1319
bin	0.0002546112	1284
bin	0.0002554656	1293
bin	0.00025632	1314
bin	0.0002571744	1298
bin	0.0002580288	1337
bin	0.0002588832	1236
bin	0.0002597376	1192
bin	0.000260592	1231
bin	0.0002614464	1246
bin	0.0002623008	1219
bin	0.0002631552	1267
bin	0.0002640096	1333
bin	0.000264864	1289
bin	0.0002657184	1351
bin	0.0002665728	1324
bin	0.0002674272	1376
bin	0.0002682816	1342
bin	0.000269136	1330
bin	0.0002699904	1340
bin	0.0002708448	1327
bin	0.0002716992	1309
bin	0.0002725536	1325
bin	0.000273408	1286
bin	0.0002742624	1304
bin	0.0002751168	1348
bin	0.0002759712	1284
bin	0.0002768256	1328
bin	0.00027768	1362
bin	0.0002785344	1405
bin	0.0002793888	1302
bin	0.0002802432	1301
bin	0.0002810976	1286
bin	0.000281952	1271
bin	0.0002828064	1283
bin	0.0002836608	1289
bin	0.0002845152	1293
bin	0.0002853696	1362
bin	0.000286224	1295
bin	0.0002870784	1298
bin	0.0002879328	1317
bin	0.0002887872	1293
bin	0.0002896416	1264
bin	0.000290496	1205
bin	0.0002913504	1221
bin	0.0002922048	1307
bin	0.0002930592	1276
bin	0.0002939136	1220
bin	0.000294768	1227
bin	0.0002956224	1241
bin	0.0002964768	1249
bin	0.0002973312	1283
bin	0.0002981856	1225
bin	0.00029904	1269
bin	0.0002998944	1260
bin	0.0003007488	1256
bin	0.0003016032	1314
bin	0.0003024576	1269
bin	0.000303312	1355
bin	0.0003041664	1291
bin	0.0003050208	1311
bin	0.0003058752	1340
bin	0.0003067296	1344
bin	0.000307584	1305
bin	0.0003084384	1319
bin	0.0003092928	1305
bin	0.0003101472	1237
bin	0.0003110016	1267
bin	0.000311856	1252
bin	0.0003127104	1230
bin	0.0003135648	1232
bin	0.0003144192	1190
bin	0.0003152736	1233
bin	0.000316128	1160
bin	0.0003169824	1161
bin	0.0003178368	1203
bin	0.0003186912	1212
bin	0.0003195456	1234
bin	0.0003204	1194
bin	0.0003212544	1176
bin	0.0003221088	1182
bin	0.0003229632	1190
bin	0.0003238176	1173
bin	0.000324672	1153
bin	0.0003255264	1202
bin	0.0003263808	1189
bin	0.0003272352	1186
bin	0.0003280896	1188
bin	0.000328944	1193
bin	0.0003297984	1189
bin	0.0003306528	1118
bin	0.0003315072	1163
bin	0.0003323616	1191
bin	0.000333216	1218
bin	0.0003340704	1196
bin	0.0003349248	1207
bin	0.0003357792	1164
bin	0.0003366336	1191
bin	0.000337488	1157
bin	0.0003383424	1135
bin	0.0003391968	1173
bin	0.0003400512	1158
bin	0.0003409056	1073
bin	0.00034176	1134
bin	0.0003426144	1121
bin	0.0003434688	1178
bin	0.0003443232	1227
bin	0.0003451776	1199
bin	0.000346032	1132
bin	0.0003468864	1131
bin	0.0003477408	1133
bin	0.0003485952	1126
bin	0.0003494496	1143
bin	0.000350304	1074
bin	0.0003511584	1066
bin	0.0003520128	1085
bin	0.0003528672	1120
bin	0.0003537216	1100
bin	0.000354576	1082
bin	0.0003554304	1036
bin	0.0003562848	1113
bin	0.0003571392	1102
bin	0.0003579936	1052
bin	0.000358848	1083
bin	0.0003597024	1107
bin	0.0003605568	1113
bin	0.0003614112	1159
bin	0.0003622656	1121
bin	0.00036312	1100
bin	0.0003639744	1110
bin	0.0003648288	1115
bin	0.0003656832	1118
bin	0.0003665376	1066
bin	0.000367392	1081
bin	0.0003682464	1036
bin	0.0003691008	1074
bin	0.0003699552	1050
bin	0.0003708096	1046
bin	0.000371664	1021
bin	0.0003725184	1052
bin	0.0003733728	1057
bin	0.0003742272	1098
bin	0.0003750816	1151
bin	0.000375936	1116
bin	0.0003767904	1052
bin	0.0003776448	1090
bin	0.0003784992	1068
bin	0.0003793536	1130
bin	0.000380208	1108
bin	0.0003810624	1032
bin	0.0003819168	1047
bin	0.0003827712	1062
bin	0.0003836256	1042
bin	0.00038448	1026
bin	0.0003853344	960
bin	0.0003861888	1033
bin	0.0003870432	1034
bin	0.0003878976	936
bin	0.000388752	992
bin	0.0003896064	1007
bin	0.0003904608	1023
bin	0.0003913152	1039
bin	0.0003921696	1059
bin	0.000393024	970
bin	0.0003938784	974
bin	0.0003947328	985
bin	0.0003955872	997
bin	0.0003964416	953
bin	0.000397296	998
bin	0.0003981504	1002
bin	0.0003990048	1079
bin	0.0003998592	1077
bin	0.0004007136	997
bin	0.000401568	1021
bin	0.0004024224	1027
bin	0.0004032768	1008
bin	0.0004041312	1020
bin	0.0004049856	1041
bin	0.00040584	1015
bin	0.0004066944	1038
bin	0.0004075488	982
bin	0.0004084032	1031
bin	0.0004092576	1088
bin	0.000410112	1023
bin	0.0004109664	995
bin	0.0004118208	1037
bin	0.0004126752	979
bin	0.0004135296	979
bin	0.000414384	998
bin	0.0004152384	1008
bin	0.0004160928	968
bin	0.0004169472	1014
bin	0.0004178016	1010
bin	0.000418656	1010
bin	0.0004195104	1022
bin	0.0004203648	1006
bin	0.0004212192	1013
bin	0.0004220736	990
bin	0.000422928	979
bin	0.0004237824	1024
bin	0.0004246368	985
bin	0.0004254912	997
bin	0.0004263456	984
bin	0.0004272	3930621
