version 2
run Permutation-53-20120710-23:48:21-28144
attr alg 1
attr buf 8
attr configname Permutation
attr datetime 20120710-23:48:21
attr delta 0.8
attr experiment Permutation
attr ext false
attr inifile altro.ini
attr iterationvars "$buf=8, $ext=false, $ofedge=1, $delta=0.8, $alg=1"
attr iterationvars2 "$buf=8, $ext=false, $ofedge=1, $delta=0.8, $alg=1, $repetition=0"
attr measurement "$buf=8, $ext=false, $ofedge=1, $delta=0.8, $alg=1"
attr network Torus3d_bub
attr ofedge 1
attr processid 28144
attr repetition 0
attr replication #0
attr resultdir altro-results
attr runnumber 53
attr seedset 53

scalar . 	alg 	1
scalar . 	buf 	8
scalar . 	delta 	0.8
scalar . 	ofedge 	1
scalar Torus3d_bub.timer 	#endTime 	0.004013902994101
scalar Torus3d_bub.timer 	#totalHops 	85092259
scalar Torus3d_bub.timer 	#totalPacks 	6291456
scalar Torus3d_bub.timer 	#totalDerouted 	2082923
scalar Torus3d_bub.timer 	#totalOutFlanked 	2082923
scalar Torus3d_bub.timer 	#totalCQRed 	0
scalar Torus3d_bub.timer 	#LB 	0.000786432
scalar Torus3d_bub.timer 	#ratio 	0.19592700699438
statistic Torus3d_bub.timer 	"Hop Times"
field count 6291456
field mean 8.4247305420671e-05
field stddev 9.5044775059966e-05
field sum 530.03821517271
field sqrsum 0.10148820843866
field min 3.77125e-07
field max 0.002214395999951
bin	-INF	0
bin	0	0
bin	7.12e-08	0
bin	1.424e-07	0
bin	2.136e-07	0
bin	2.848e-07	0
bin	3.56e-07	205
bin	4.272e-07	1756
bin	4.984e-07	4698
bin	5.696e-07	8018
bin	6.408e-07	12166
bin	7.12e-07	16379
bin	7.832e-07	19584
bin	8.544e-07	22866
bin	9.256e-07	25713
bin	9.968e-07	28362
bin	1.068e-06	31065
bin	1.1392e-06	34604
bin	1.2104e-06	38770
bin	1.2816e-06	43442
bin	1.3528e-06	48946
bin	1.424e-06	55775
bin	1.4952e-06	61765
bin	1.5664e-06	66949
bin	1.6376e-06	71352
bin	1.7088e-06	75045
bin	1.78e-06	76527
bin	1.8512e-06	76352
bin	1.9224e-06	75295
bin	1.9936e-06	72624
bin	2.0648e-06	69704
bin	2.136e-06	66116
bin	2.2072e-06	61732
bin	2.2784e-06	57272
bin	2.3496e-06	53285
bin	2.4208e-06	48868
bin	2.492e-06	44915
bin	2.5632e-06	41292
bin	2.6344e-06	37945
bin	2.7056e-06	35041
bin	2.7768e-06	32162
bin	2.848e-06	29946
bin	2.9192e-06	27427
bin	2.9904e-06	25225
bin	3.0616e-06	23508
bin	3.1328e-06	21873
bin	3.204e-06	20230
bin	3.2752e-06	18934
bin	3.3464e-06	17831
bin	3.4176e-06	16647
bin	3.4888e-06	15639
bin	3.56e-06	14867
bin	3.6312e-06	13781
bin	3.7024e-06	12928
bin	3.7736e-06	12357
bin	3.8448e-06	11463
bin	3.916e-06	11064
bin	3.9872e-06	10554
bin	4.0584e-06	9916
bin	4.1296e-06	9472
bin	4.2008e-06	8924
bin	4.272e-06	8585
bin	4.3432e-06	8289
bin	4.4144e-06	8000
bin	4.4856e-06	7670
bin	4.5568e-06	7405
bin	4.628e-06	7123
bin	4.6992e-06	7025
bin	4.7704e-06	6815
bin	4.8416e-06	6556
bin	4.9128e-06	6301
bin	4.984e-06	6148
bin	5.0552e-06	5934
bin	5.1264e-06	5871
bin	5.1976e-06	5767
bin	5.2688e-06	5462
bin	5.34e-06	5399
bin	5.4112e-06	5291
bin	5.4824e-06	5170
bin	5.5536e-06	4944
bin	5.6248e-06	4910
bin	5.696e-06	4784
bin	5.7672e-06	4682
bin	5.8384e-06	4436
bin	5.9096e-06	4499
bin	5.9808e-06	4434
bin	6.052e-06	4249
bin	6.1232e-06	4313
bin	6.1944e-06	4177
bin	6.2656e-06	4008
bin	6.3368e-06	4001
bin	6.408e-06	3939
bin	6.4792e-06	3883
bin	6.5504e-06	3694
bin	6.6216e-06	3635
bin	6.6928e-06	3616
bin	6.764e-06	3572
bin	6.8352e-06	3603
bin	6.9064e-06	3559
bin	6.9776e-06	3458
bin	7.0488e-06	3375
bin	7.12e-06	3358
bin	7.1912e-06	3392
bin	7.2624e-06	3299
bin	7.3336e-06	3198
bin	7.4048e-06	3104
bin	7.476e-06	3064
bin	7.5472e-06	3010
bin	7.6184e-06	3020
bin	7.6896e-06	2927
bin	7.7608e-06	2880
bin	7.832e-06	2845
bin	7.9032e-06	2808
bin	7.9744e-06	2860
bin	8.0456e-06	2699
bin	8.1168e-06	2778
bin	8.188e-06	2722
bin	8.2592e-06	2743
bin	8.3304e-06	2713
bin	8.4016e-06	2668
bin	8.4728e-06	2627
bin	8.544e-06	2501
bin	8.6152e-06	2587
bin	8.6864e-06	2479
bin	8.7576e-06	2505
bin	8.8288e-06	2526
bin	8.9e-06	2390
bin	8.9712e-06	2332
bin	9.0424e-06	2381
bin	9.1136e-06	2369
bin	9.1848e-06	2254
bin	9.256e-06	2375
bin	9.3272e-06	2271
bin	9.3984e-06	2296
bin	9.4696e-06	2258
bin	9.5408e-06	2243
bin	9.612e-06	2202
bin	9.6832e-06	2227
bin	9.7544e-06	2207
bin	9.8256e-06	2154
bin	9.8968e-06	2146
bin	9.968e-06	2193
bin	1.00392e-05	2110
bin	1.01104e-05	2080
bin	1.01816e-05	2120
bin	1.02528e-05	2077
bin	1.0324e-05	2111
bin	1.03952e-05	2023
bin	1.04664e-05	1998
bin	1.05376e-05	1985
bin	1.06088e-05	2006
bin	1.068e-05	1954
bin	1.07512e-05	1873
bin	1.08224e-05	1826
bin	1.08936e-05	1840
bin	1.09648e-05	1822
bin	1.1036e-05	1849
bin	1.11072e-05	1827
bin	1.11784e-05	1751
bin	1.12496e-05	1750
bin	1.13208e-05	1799
bin	1.1392e-05	1819
bin	1.14632e-05	1813
bin	1.15344e-05	1751
bin	1.16056e-05	1615
bin	1.16768e-05	1721
bin	1.1748e-05	1678
bin	1.18192e-05	1692
bin	1.18904e-05	1714
bin	1.19616e-05	1730
bin	1.20328e-05	1745
bin	1.2104e-05	1696
bin	1.21752e-05	1696
bin	1.22464e-05	1811
bin	1.23176e-05	1725
bin	1.23888e-05	1709
bin	1.246e-05	1642
bin	1.25312e-05	1594
bin	1.26024e-05	1655
bin	1.26736e-05	1614
bin	1.27448e-05	1600
bin	1.2816e-05	1585
bin	1.28872e-05	1606
bin	1.29584e-05	1647
bin	1.30296e-05	1537
bin	1.31008e-05	1538
bin	1.3172e-05	1546
bin	1.32432e-05	1523
bin	1.33144e-05	1541
bin	1.33856e-05	1551
bin	1.34568e-05	1590
bin	1.3528e-05	1564
bin	1.35992e-05	1498
bin	1.36704e-05	1504
bin	1.37416e-05	1536
bin	1.38128e-05	1520
bin	1.3884e-05	1459
bin	1.39552e-05	1415
bin	1.40264e-05	1458
bin	1.40976e-05	1462
bin	1.41688e-05	1495
bin	1.424e-05	1422
bin	1.43112e-05	1433
bin	1.43824e-05	1422
bin	1.44536e-05	1405
bin	1.45248e-05	1454
bin	1.4596e-05	1487
bin	1.46672e-05	1437
bin	1.47384e-05	1443
bin	1.48096e-05	1396
bin	1.48808e-05	1417
bin	1.4952e-05	1417
bin	1.50232e-05	1403
bin	1.50944e-05	1413
bin	1.51656e-05	1387
bin	1.52368e-05	1405
bin	1.5308e-05	1380
bin	1.53792e-05	1416
bin	1.54504e-05	1362
bin	1.55216e-05	1293
bin	1.55928e-05	1396
bin	1.5664e-05	1366
bin	1.57352e-05	1426
bin	1.58064e-05	1386
bin	1.58776e-05	1396
bin	1.59488e-05	1353
bin	1.602e-05	1408
bin	1.60912e-05	1404
bin	1.61624e-05	1418
bin	1.62336e-05	1366
bin	1.63048e-05	1399
bin	1.6376e-05	1259
bin	1.64472e-05	1312
bin	1.65184e-05	1348
bin	1.65896e-05	1305
bin	1.66608e-05	1327
bin	1.6732e-05	1270
bin	1.68032e-05	1357
bin	1.68744e-05	1262
bin	1.69456e-05	1277
bin	1.70168e-05	1224
bin	1.7088e-05	1293
bin	1.71592e-05	1377
bin	1.72304e-05	1312
bin	1.73016e-05	1244
bin	1.73728e-05	1299
bin	1.7444e-05	1347
bin	1.75152e-05	1304
bin	1.75864e-05	1293
bin	1.76576e-05	1306
bin	1.77288e-05	1312
bin	1.78e-05	1259
bin	1.78712e-05	1257
bin	1.79424e-05	1286
bin	1.80136e-05	1263
bin	1.80848e-05	1250
bin	1.8156e-05	1161
bin	1.82272e-05	1223
bin	1.82984e-05	1188
bin	1.83696e-05	1285
bin	1.84408e-05	1268
bin	1.8512e-05	1210
bin	1.85832e-05	1233
bin	1.86544e-05	1212
bin	1.87256e-05	1132
bin	1.87968e-05	1180
bin	1.8868e-05	1225
bin	1.89392e-05	1166
bin	1.90104e-05	1191
bin	1.90816e-05	1164
bin	1.91528e-05	1220
bin	1.9224e-05	1214
bin	1.92952e-05	1208
bin	1.93664e-05	1222
bin	1.94376e-05	1200
bin	1.95088e-05	1263
bin	1.958e-05	1154
bin	1.96512e-05	1178
bin	1.97224e-05	1243
bin	1.97936e-05	1202
bin	1.98648e-05	1212
bin	1.9936e-05	1171
bin	2.00072e-05	1239
bin	2.00784e-05	1214
bin	2.01496e-05	1225
bin	2.02208e-05	1171
bin	2.0292e-05	1193
bin	2.03632e-05	1177
bin	2.04344e-05	1186
bin	2.05056e-05	1184
bin	2.05768e-05	1183
bin	2.0648e-05	1268
bin	2.07192e-05	1235
bin	2.07904e-05	1290
bin	2.08616e-05	1256
bin	2.09328e-05	1214
bin	2.1004e-05	1175
bin	2.10752e-05	1232
bin	2.11464e-05	1177
bin	2.12176e-05	1200
bin	2.12888e-05	1223
bin	2.136e-05	1264
bin	2.14312e-05	1279
bin	2.15024e-05	1287
bin	2.15736e-05	1193
bin	2.16448e-05	1189
bin	2.1716e-05	1148
bin	2.17872e-05	1183
bin	2.18584e-05	1156
bin	2.19296e-05	1116
bin	2.20008e-05	1154
bin	2.2072e-05	1114
bin	2.21432e-05	1057
bin	2.22144e-05	1110
bin	2.22856e-05	1116
bin	2.23568e-05	1145
bin	2.2428e-05	1169
bin	2.24992e-05	1115
bin	2.25704e-05	1143
bin	2.26416e-05	1097
bin	2.27128e-05	1094
bin	2.2784e-05	1108
bin	2.28552e-05	1095
bin	2.29264e-05	1185
bin	2.29976e-05	1189
bin	2.30688e-05	1150
bin	2.314e-05	1132
bin	2.32112e-05	1088
bin	2.32824e-05	1106
bin	2.33536e-05	1124
bin	2.34248e-05	1133
bin	2.3496e-05	1105
bin	2.35672e-05	1115
bin	2.36384e-05	1163
bin	2.37096e-05	1052
bin	2.37808e-05	1062
bin	2.3852e-05	1132
bin	2.39232e-05	1061
bin	2.39944e-05	1113
bin	2.40656e-05	1115
bin	2.41368e-05	1164
bin	2.4208e-05	1084
bin	2.42792e-05	1099
bin	2.43504e-05	1124
bin	2.44216e-05	1123
bin	2.44928e-05	1137
bin	2.4564e-05	1105
bin	2.46352e-05	1065
bin	2.47064e-05	1058
bin	2.47776e-05	1130
bin	2.48488e-05	1101
bin	2.492e-05	1133
bin	2.49912e-05	1127
bin	2.50624e-05	1164
bin	2.51336e-05	1115
bin	2.52048e-05	1119
bin	2.5276e-05	1133
bin	2.53472e-05	1120
bin	2.54184e-05	1096
bin	2.54896e-05	1036
bin	2.55608e-05	1094
bin	2.5632e-05	1074
bin	2.57032e-05	1037
bin	2.57744e-05	1120
bin	2.58456e-05	1118
bin	2.59168e-05	1097
bin	2.5988e-05	1082
bin	2.60592e-05	1134
bin	2.61304e-05	1115
bin	2.62016e-05	1092
bin	2.62728e-05	1139
bin	2.6344e-05	1105
bin	2.64152e-05	1123
bin	2.64864e-05	1087
bin	2.65576e-05	1088
bin	2.66288e-05	1071
bin	2.67e-05	1031
bin	2.67712e-05	1070
bin	2.68424e-05	1092
bin	2.69136e-05	1118
bin	2.69848e-05	1066
bin	2.7056e-05	1082
bin	2.71272e-05	1079
bin	2.71984e-05	1123
bin	2.72696e-05	1086
bin	2.73408e-05	1069
bin	2.7412e-05	1084
bin	2.74832e-05	1070
bin	2.75544e-05	1057
bin	2.76256e-05	1092
bin	2.76968e-05	1063
bin	2.7768e-05	1081
bin	2.78392e-05	1090
bin	2.79104e-05	1054
bin	2.79816e-05	1107
bin	2.80528e-05	1072
bin	2.8124e-05	1162
bin	2.81952e-05	1121
bin	2.82664e-05	1109
bin	2.83376e-05	1137
bin	2.84088e-05	1085
bin	2.848e-05	1111
bin	2.85512e-05	1022
bin	2.86224e-05	981
bin	2.86936e-05	997
bin	2.87648e-05	1047
bin	2.8836e-05	998
bin	2.89072e-05	1026
bin	2.89784e-05	1076
bin	2.90496e-05	1076
bin	2.91208e-05	1079
bin	2.9192e-05	1077
bin	2.92632e-05	1018
bin	2.93344e-05	1049
bin	2.94056e-05	1037
bin	2.94768e-05	1009
bin	2.9548e-05	1041
bin	2.96192e-05	1067
bin	2.96904e-05	1061
bin	2.97616e-05	1062
bin	2.98328e-05	1045
bin	2.9904e-05	996
bin	2.99752e-05	1044
bin	3.00464e-05	995
bin	3.01176e-05	1015
bin	3.01888e-05	1035
bin	3.026e-05	1025
bin	3.03312e-05	1057
bin	3.04024e-05	1019
bin	3.04736e-05	1026
bin	3.05448e-05	1094
bin	3.0616e-05	1099
bin	3.06872e-05	1094
bin	3.07584e-05	1085
bin	3.08296e-05	1137
bin	3.09008e-05	1110
bin	3.0972e-05	1131
bin	3.10432e-05	1086
bin	3.11144e-05	1056
bin	3.11856e-05	1101
bin	3.12568e-05	1078
bin	3.1328e-05	1103
bin	3.13992e-05	1034
bin	3.14704e-05	1072
bin	3.15416e-05	1028
bin	3.16128e-05	1001
bin	3.1684e-05	1005
bin	3.17552e-05	1023
bin	3.18264e-05	1022
bin	3.18976e-05	1016
bin	3.19688e-05	1042
bin	3.204e-05	1010
bin	3.21112e-05	1013
bin	3.21824e-05	977
bin	3.22536e-05	1111
bin	3.23248e-05	1067
bin	3.2396e-05	1046
bin	3.24672e-05	1064
bin	3.25384e-05	1081
bin	3.26096e-05	1045
bin	3.26808e-05	1139
bin	3.2752e-05	1121
bin	3.28232e-05	1121
bin	3.28944e-05	1099
bin	3.29656e-05	1101
bin	3.30368e-05	1072
bin	3.3108e-05	1080
bin	3.31792e-05	1096
bin	3.32504e-05	1061
bin	3.33216e-05	1097
bin	3.33928e-05	1100
bin	3.3464e-05	1001
bin	3.35352e-05	1114
bin	3.36064e-05	1034
bin	3.36776e-05	993
bin	3.37488e-05	981
bin	3.382e-05	1018
bin	3.38912e-05	1024
bin	3.39624e-05	1023
bin	3.40336e-05	1054
bin	3.41048e-05	1039
bin	3.4176e-05	1068
bin	3.42472e-05	1019
bin	3.43184e-05	1095
bin	3.43896e-05	1052
bin	3.44608e-05	1039
bin	3.4532e-05	1068
bin	3.46032e-05	1173
bin	3.46744e-05	1138
bin	3.47456e-05	1094
bin	3.48168e-05	1115
bin	3.4888e-05	1101
bin	3.49592e-05	1068
bin	3.50304e-05	1093
bin	3.51016e-05	1081
bin	3.51728e-05	1083
bin	3.5244e-05	1073
bin	3.53152e-05	1116
bin	3.53864e-05	1055
bin	3.54576e-05	1063
bin	3.55288e-05	1113
bin	3.56e-05	3678508
statistic Torus3d_bub.timer 	"Life Times"
field count 6291456
field mean 0.0010561462012205
field stddev 0.00097220005404185
field sum 6644.697354546
field sqrsum 12.964284920445
field min 5.2e-07
field max 0.003704631994101
bin	-INF	0
bin	0	28
bin	8.544e-07	696
bin	1.7088e-06	2207
bin	2.5632e-06	4271
bin	3.4176e-06	6627
bin	4.272e-06	9026
bin	5.1264e-06	11566
bin	5.9808e-06	14178
bin	6.8352e-06	16759
bin	7.6896e-06	19623
bin	8.544e-06	22449
bin	9.3984e-06	25203
bin	1.02528e-05	27796
bin	1.11072e-05	29034
bin	1.19616e-05	30940
bin	1.2816e-05	33317
bin	1.36704e-05	34840
bin	1.45248e-05	36909
bin	1.53792e-05	38635
bin	1.62336e-05	40837
bin	1.7088e-05	43433
bin	1.79424e-05	45340
bin	1.87968e-05	47959
bin	1.96512e-05	50029
bin	2.05056e-05	53169
bin	2.136e-05	55756
bin	2.22144e-05	58323
bin	2.30688e-05	60772
bin	2.39232e-05	63290
bin	2.47776e-05	64650
bin	2.5632e-05	65560
bin	2.64864e-05	65099
bin	2.73408e-05	64529
bin	2.81952e-05	63477
bin	2.90496e-05	61141
bin	2.9904e-05	58060
bin	3.07584e-05	54779
bin	3.16128e-05	50090
bin	3.24672e-05	44586
bin	3.33216e-05	39640
bin	3.4176e-05	35514
bin	3.50304e-05	31955
bin	3.58848e-05	28531
bin	3.67392e-05	25200
bin	3.75936e-05	22841
bin	3.8448e-05	20387
bin	3.93024e-05	18263
bin	4.01568e-05	16263
bin	4.10112e-05	14573
bin	4.18656e-05	12886
bin	4.272e-05	11895
bin	4.35744e-05	11139
bin	4.44288e-05	10391
bin	4.52832e-05	9770
bin	4.61376e-05	9546
bin	4.6992e-05	8988
bin	4.78464e-05	8524
bin	4.87008e-05	8425
bin	4.95552e-05	8131
bin	5.04096e-05	7819
bin	5.1264e-05	7775
bin	5.21184e-05	7632
bin	5.29728e-05	7449
bin	5.38272e-05	7445
bin	5.46816e-05	7140
bin	5.5536e-05	7086
bin	5.63904e-05	7107
bin	5.72448e-05	6952
bin	5.80992e-05	6709
bin	5.89536e-05	6623
bin	5.9808e-05	6715
bin	6.06624e-05	6810
bin	6.15168e-05	6738
bin	6.23712e-05	6519
bin	6.32256e-05	6352
bin	6.408e-05	6122
bin	6.49344e-05	5839
bin	6.57888e-05	5607
bin	6.66432e-05	5392
bin	6.74976e-05	5251
bin	6.8352e-05	4843
bin	6.92064e-05	4752
bin	7.00608e-05	4630
bin	7.09152e-05	4408
bin	7.17696e-05	4240
bin	7.2624e-05	4084
bin	7.34784e-05	3807
bin	7.43328e-05	3846
bin	7.51872e-05	3787
bin	7.60416e-05	3700
bin	7.6896e-05	3439
bin	7.77504e-05	3407
bin	7.86048e-05	3436
bin	7.94592e-05	3359
bin	8.03136e-05	3351
bin	8.1168e-05	3228
bin	8.20224e-05	3250
bin	8.28768e-05	3222
bin	8.37312e-05	3181
bin	8.45856e-05	3075
bin	8.544e-05	3177
bin	8.62944e-05	3182
bin	8.71488e-05	3097
bin	8.80032e-05	3128
bin	8.88576e-05	3152
bin	8.9712e-05	3151
bin	9.05664e-05	3263
bin	9.14208e-05	3288
bin	9.22752e-05	3235
bin	9.31296e-05	3227
bin	9.3984e-05	3198
bin	9.48384e-05	3124
bin	9.56928e-05	3143
bin	9.65472e-05	3094
bin	9.74016e-05	2948
bin	9.8256e-05	2853
bin	9.91104e-05	2869
bin	9.99648e-05	2808
bin	0.0001008192	2750
bin	0.0001016736	2662
bin	0.000102528	2644
bin	0.0001033824	2611
bin	0.0001042368	2526
bin	0.0001050912	2434
bin	0.0001059456	2429
bin	0.0001068	2341
bin	0.0001076544	2368
bin	0.0001085088	2296
bin	0.0001093632	2363
bin	0.0001102176	2259
bin	0.000111072	2263
bin	0.0001119264	2282
bin	0.0001127808	2250
bin	0.0001136352	2188
bin	0.0001144896	2281
bin	0.000115344	2285
bin	0.0001161984	2248
bin	0.0001170528	2254
bin	0.0001179072	2251
bin	0.0001187616	2203
bin	0.000119616	2228
bin	0.0001204704	2251
bin	0.0001213248	2189
bin	0.0001221792	2199
bin	0.0001230336	2234
bin	0.000123888	2215
bin	0.0001247424	2242
bin	0.0001255968	2171
bin	0.0001264512	2143
bin	0.0001273056	2098
bin	0.00012816	2157
bin	0.0001290144	2075
bin	0.0001298688	2145
bin	0.0001307232	2066
bin	0.0001315776	1947
bin	0.000132432	2007
bin	0.0001332864	1955
bin	0.0001341408	1891
bin	0.0001349952	1940
bin	0.0001358496	1830
bin	0.000136704	1766
bin	0.0001375584	1750
bin	0.0001384128	1730
bin	0.0001392672	1677
bin	0.0001401216	1671
bin	0.000140976	1688
bin	0.0001418304	1759
bin	0.0001426848	1599
bin	0.0001435392	1673
bin	0.0001443936	1705
bin	0.000145248	1697
bin	0.0001461024	1821
bin	0.0001469568	1807
bin	0.0001478112	1741
bin	0.0001486656	1826
bin	0.00014952	1739
bin	0.0001503744	1721
bin	0.0001512288	1719
bin	0.0001520832	1733
bin	0.0001529376	1728
bin	0.000153792	1758
bin	0.0001546464	1703
bin	0.0001555008	1739
bin	0.0001563552	1711
bin	0.0001572096	1701
bin	0.000158064	1707
bin	0.0001589184	1653
bin	0.0001597728	1604
bin	0.0001606272	1543
bin	0.0001614816	1550
bin	0.000162336	1521
bin	0.0001631904	1518
bin	0.0001640448	1523
bin	0.0001648992	1546
bin	0.0001657536	1516
bin	0.000166608	1468
bin	0.0001674624	1489
bin	0.0001683168	1533
bin	0.0001691712	1479
bin	0.0001700256	1477
bin	0.00017088	1529
bin	0.0001717344	1457
bin	0.0001725888	1477
bin	0.0001734432	1434
bin	0.0001742976	1517
bin	0.000175152	1485
bin	0.0001760064	1494
bin	0.0001768608	1447
bin	0.0001777152	1401
bin	0.0001785696	1402
bin	0.000179424	1386
bin	0.0001802784	1374
bin	0.0001811328	1408
bin	0.0001819872	1407
bin	0.0001828416	1410
bin	0.000183696	1315
bin	0.0001845504	1424
bin	0.0001854048	1358
bin	0.0001862592	1393
bin	0.0001871136	1375
bin	0.000187968	1338
bin	0.0001888224	1348
bin	0.0001896768	1318
bin	0.0001905312	1380
bin	0.0001913856	1319
bin	0.00019224	1310
bin	0.0001930944	1263
bin	0.0001939488	1248
bin	0.0001948032	1205
bin	0.0001956576	1229
bin	0.000196512	1200
bin	0.0001973664	1218
bin	0.0001982208	1191
bin	0.0001990752	1144
bin	0.0001999296	1219
bin	0.000200784	1168
bin	0.0002016384	1225
bin	0.0002024928	1222
bin	0.0002033472	1217
bin	0.0002042016	1212
bin	0.000205056	1236
bin	0.0002059104	1192
bin	0.0002067648	1211
bin	0.0002076192	1198
bin	0.0002084736	1222
bin	0.000209328	1209
bin	0.0002101824	1225
bin	0.0002110368	1196
bin	0.0002118912	1196
bin	0.0002127456	1212
bin	0.0002136	1182
bin	0.0002144544	1265
bin	0.0002153088	1219
bin	0.0002161632	1265
bin	0.0002170176	1241
bin	0.000217872	1211
bin	0.0002187264	1209
bin	0.0002195808	1263
bin	0.0002204352	1251
bin	0.0002212896	1246
bin	0.000222144	1244
bin	0.0002229984	1203
bin	0.0002238528	1162
bin	0.0002247072	1185
bin	0.0002255616	1193
bin	0.000226416	1216
bin	0.0002272704	1233
bin	0.0002281248	1210
bin	0.0002289792	1244
bin	0.0002298336	1212
bin	0.000230688	1147
bin	0.0002315424	1136
bin	0.0002323968	1116
bin	0.0002332512	1153
bin	0.0002341056	1229
bin	0.00023496	1167
bin	0.0002358144	1116
bin	0.0002366688	1143
bin	0.0002375232	1208
bin	0.0002383776	1150
bin	0.000239232	1163
bin	0.0002400864	1193
bin	0.0002409408	1220
bin	0.0002417952	1181
bin	0.0002426496	1156
bin	0.000243504	1108
bin	0.0002443584	1184
bin	0.0002452128	1127
bin	0.0002460672	1122
bin	0.0002469216	1124
bin	0.000247776	1175
bin	0.0002486304	1178
bin	0.0002494848	1185
bin	0.0002503392	1179
bin	0.0002511936	1166
bin	0.000252048	1161
bin	0.0002529024	1166
bin	0.0002537568	1213
bin	0.0002546112	1135
bin	0.0002554656	1121
bin	0.00025632	1155
bin	0.0002571744	1185
bin	0.0002580288	1129
bin	0.0002588832	1087
bin	0.0002597376	1082
bin	0.000260592	1141
bin	0.0002614464	1115
bin	0.0002623008	1104
bin	0.0002631552	1072
bin	0.0002640096	1042
bin	0.000264864	987
bin	0.0002657184	1120
bin	0.0002665728	1017
bin	0.0002674272	1073
bin	0.0002682816	1142
bin	0.000269136	1109
bin	0.0002699904	1142
bin	0.0002708448	1073
bin	0.0002716992	1051
bin	0.0002725536	1074
bin	0.000273408	1111
bin	0.0002742624	1087
bin	0.0002751168	1112
bin	0.0002759712	1139
bin	0.0002768256	1079
bin	0.00027768	1095
bin	0.0002785344	1111
bin	0.0002793888	1143
bin	0.0002802432	1132
bin	0.0002810976	1134
bin	0.000281952	1114
bin	0.0002828064	1145
bin	0.0002836608	1180
bin	0.0002845152	1113
bin	0.0002853696	1102
bin	0.000286224	1022
bin	0.0002870784	1080
bin	0.0002879328	1088
bin	0.0002887872	1094
bin	0.0002896416	1102
bin	0.000290496	1052
bin	0.0002913504	1103
bin	0.0002922048	1134
bin	0.0002930592	1121
bin	0.0002939136	1138
bin	0.000294768	1114
bin	0.0002956224	1116
bin	0.0002964768	1109
bin	0.0002973312	1061
bin	0.0002981856	1132
bin	0.00029904	1044
bin	0.0002998944	1056
bin	0.0003007488	1053
bin	0.0003016032	1107
bin	0.0003024576	1065
bin	0.000303312	1112
bin	0.0003041664	1058
bin	0.0003050208	1117
bin	0.0003058752	1097
bin	0.0003067296	1038
bin	0.000307584	1073
bin	0.0003084384	1066
bin	0.0003092928	1070
bin	0.0003101472	1062
bin	0.0003110016	1049
bin	0.000311856	1050
bin	0.0003127104	1090
bin	0.0003135648	1063
bin	0.0003144192	1069
bin	0.0003152736	1038
bin	0.000316128	1066
bin	0.0003169824	1053
bin	0.0003178368	994
bin	0.0003186912	986
bin	0.0003195456	980
bin	0.0003204	985
bin	0.0003212544	968
bin	0.0003221088	961
bin	0.0003229632	936
bin	0.0003238176	943
bin	0.000324672	953
bin	0.0003255264	940
bin	0.0003263808	965
bin	0.0003272352	935
bin	0.0003280896	964
bin	0.000328944	982
bin	0.0003297984	942
bin	0.0003306528	937
bin	0.0003315072	949
bin	0.0003323616	993
bin	0.000333216	983
bin	0.0003340704	986
bin	0.0003349248	977
bin	0.0003357792	938
bin	0.0003366336	1015
bin	0.000337488	1020
bin	0.0003383424	1025
bin	0.0003391968	933
bin	0.0003400512	1004
bin	0.0003409056	1020
bin	0.00034176	1033
bin	0.0003426144	996
bin	0.0003434688	1047
bin	0.0003443232	982
bin	0.0003451776	978
bin	0.000346032	984
bin	0.0003468864	960
bin	0.0003477408	976
bin	0.0003485952	1028
bin	0.0003494496	989
bin	0.000350304	1004
bin	0.0003511584	1035
bin	0.0003520128	1058
bin	0.0003528672	1011
bin	0.0003537216	990
bin	0.000354576	977
bin	0.0003554304	977
bin	0.0003562848	956
bin	0.0003571392	951
bin	0.0003579936	1017
bin	0.000358848	1000
bin	0.0003597024	1060
bin	0.0003605568	1037
bin	0.0003614112	1000
bin	0.0003622656	1028
bin	0.00036312	984
bin	0.0003639744	970
bin	0.0003648288	973
bin	0.0003656832	991
bin	0.0003665376	1010
bin	0.000367392	978
bin	0.0003682464	977
bin	0.0003691008	954
bin	0.0003699552	932
bin	0.0003708096	955
bin	0.000371664	957
bin	0.0003725184	1001
bin	0.0003733728	1011
bin	0.0003742272	1011
bin	0.0003750816	999
bin	0.000375936	1002
bin	0.0003767904	1033
bin	0.0003776448	1044
bin	0.0003784992	1026
bin	0.0003793536	965
bin	0.000380208	984
bin	0.0003810624	973
bin	0.0003819168	955
bin	0.0003827712	931
bin	0.0003836256	909
bin	0.00038448	953
bin	0.0003853344	963
bin	0.0003861888	926
bin	0.0003870432	980
bin	0.0003878976	909
bin	0.000388752	935
bin	0.0003896064	920
bin	0.0003904608	916
bin	0.0003913152	979
bin	0.0003921696	916
bin	0.000393024	927
bin	0.0003938784	916
bin	0.0003947328	932
bin	0.0003955872	915
bin	0.0003964416	968
bin	0.000397296	950
bin	0.0003981504	851
bin	0.0003990048	868
bin	0.0003998592	913
bin	0.0004007136	940
bin	0.000401568	890
bin	0.0004024224	881
bin	0.0004032768	875
bin	0.0004041312	876
bin	0.0004049856	905
bin	0.00040584	924
bin	0.0004066944	999
bin	0.0004075488	1009
bin	0.0004084032	953
bin	0.0004092576	917
bin	0.000410112	937
bin	0.0004109664	910
bin	0.0004118208	889
bin	0.0004126752	912
bin	0.0004135296	924
bin	0.000414384	963
bin	0.0004152384	916
bin	0.0004160928	912
bin	0.0004169472	968
bin	0.0004178016	910
bin	0.000418656	880
bin	0.0004195104	884
bin	0.0004203648	895
bin	0.0004212192	905
bin	0.0004220736	895
bin	0.000422928	869
bin	0.0004237824	960
bin	0.0004246368	903
bin	0.0004254912	901
bin	0.0004263456	925
bin	0.0004272	3704711
