version 2
run Permutation-49-20120710-23:29:48-28138
attr alg 1
attr buf 8
attr configname Permutation
attr datetime 20120710-23:29:48
attr delta 0.6
attr experiment Permutation
attr ext false
attr inifile altro.ini
attr iterationvars "$buf=8, $ext=false, $ofedge=1, $delta=0.6, $alg=1"
attr iterationvars2 "$buf=8, $ext=false, $ofedge=1, $delta=0.6, $alg=1, $repetition=0"
attr measurement "$buf=8, $ext=false, $ofedge=1, $delta=0.6, $alg=1"
attr network Torus3d_bub
attr ofedge 1
attr processid 28138
attr repetition 0
attr replication #0
attr resultdir altro-results
attr runnumber 49
attr seedset 49

scalar . 	alg 	1
scalar . 	buf 	8
scalar . 	delta 	0.6
scalar . 	ofedge 	1
scalar Torus3d_bub.timer 	#endTime 	0.001551125664412
scalar Torus3d_bub.timer 	#totalHops 	78168251
scalar Torus3d_bub.timer 	#totalPacks 	6291456
scalar Torus3d_bub.timer 	#totalDerouted 	555804
scalar Torus3d_bub.timer 	#totalOutFlanked 	555804
scalar Torus3d_bub.timer 	#totalCQRed 	0
scalar Torus3d_bub.timer 	#LB 	0.000786432
scalar Torus3d_bub.timer 	#ratio 	0.50700727738788
statistic Torus3d_bub.timer 	"Hop Times"
field count 6291456
field mean 1.9857467608113e-06
field stddev 1.7520899494701e-06
field sum 12.493238372787
field sqrsum 4.4122036929333e-05
field min 3.77125e-07
field max 0.0002340593322
bin	-INF	0
bin	0	0
bin	7.12e-08	0
bin	1.424e-07	0
bin	2.136e-07	0
bin	2.848e-07	0
bin	3.56e-07	792
bin	4.272e-07	14982
bin	4.984e-07	37494
bin	5.696e-07	58004
bin	6.408e-07	80398
bin	7.12e-07	99258
bin	7.832e-07	111940
bin	8.544e-07	120649
bin	9.256e-07	126979
bin	9.968e-07	132164
bin	1.068e-06	138678
bin	1.1392e-06	150425
bin	1.2104e-06	166080
bin	1.2816e-06	187653
bin	1.3528e-06	214288
bin	1.424e-06	241841
bin	1.4952e-06	267219
bin	1.5664e-06	287560
bin	1.6376e-06	300167
bin	1.7088e-06	303590
bin	1.78e-06	297952
bin	1.8512e-06	287954
bin	1.9224e-06	273629
bin	1.9936e-06	252524
bin	2.0648e-06	230937
bin	2.136e-06	208911
bin	2.2072e-06	187064
bin	2.2784e-06	165885
bin	2.3496e-06	147685
bin	2.4208e-06	129741
bin	2.492e-06	114283
bin	2.5632e-06	100969
bin	2.6344e-06	88598
bin	2.7056e-06	78682
bin	2.7768e-06	68889
bin	2.848e-06	60416
bin	2.9192e-06	53537
bin	2.9904e-06	47391
bin	3.0616e-06	40947
bin	3.1328e-06	36186
bin	3.204e-06	32369
bin	3.2752e-06	28540
bin	3.3464e-06	25606
bin	3.4176e-06	22618
bin	3.4888e-06	20366
bin	3.56e-06	18445
bin	3.6312e-06	16343
bin	3.7024e-06	14444
bin	3.7736e-06	13087
bin	3.8448e-06	12039
bin	3.916e-06	10755
bin	3.9872e-06	9774
bin	4.0584e-06	8945
bin	4.1296e-06	8132
bin	4.2008e-06	7147
bin	4.272e-06	6820
bin	4.3432e-06	6144
bin	4.4144e-06	5968
bin	4.4856e-06	5146
bin	4.5568e-06	4920
bin	4.628e-06	4334
bin	4.6992e-06	3994
bin	4.7704e-06	3758
bin	4.8416e-06	3327
bin	4.9128e-06	3122
bin	4.984e-06	2784
bin	5.0552e-06	2828
bin	5.1264e-06	2504
bin	5.1976e-06	2403
bin	5.2688e-06	2133
bin	5.34e-06	2191
bin	5.4112e-06	1953
bin	5.4824e-06	1829
bin	5.5536e-06	1683
bin	5.6248e-06	1681
bin	5.696e-06	1554
bin	5.7672e-06	1387
bin	5.8384e-06	1411
bin	5.9096e-06	1364
bin	5.9808e-06	1293
bin	6.052e-06	1073
bin	6.1232e-06	1188
bin	6.1944e-06	1090
bin	6.2656e-06	1038
bin	6.3368e-06	982
bin	6.408e-06	923
bin	6.4792e-06	878
bin	6.5504e-06	778
bin	6.6216e-06	802
bin	6.6928e-06	786
bin	6.764e-06	721
bin	6.8352e-06	618
bin	6.9064e-06	745
bin	6.9776e-06	652
bin	7.0488e-06	657
bin	7.12e-06	659
bin	7.1912e-06	678
bin	7.2624e-06	532
bin	7.3336e-06	468
bin	7.4048e-06	521
bin	7.476e-06	581
bin	7.5472e-06	479
bin	7.6184e-06	466
bin	7.6896e-06	535
bin	7.7608e-06	487
bin	7.832e-06	432
bin	7.9032e-06	376
bin	7.9744e-06	452
bin	8.0456e-06	412
bin	8.1168e-06	371
bin	8.188e-06	403
bin	8.2592e-06	472
bin	8.3304e-06	375
bin	8.4016e-06	319
bin	8.4728e-06	353
bin	8.544e-06	355
bin	8.6152e-06	329
bin	8.6864e-06	332
bin	8.7576e-06	353
bin	8.8288e-06	297
bin	8.9e-06	268
bin	8.9712e-06	274
bin	9.0424e-06	331
bin	9.1136e-06	255
bin	9.1848e-06	263
bin	9.256e-06	306
bin	9.3272e-06	286
bin	9.3984e-06	234
bin	9.4696e-06	243
bin	9.5408e-06	295
bin	9.612e-06	270
bin	9.6832e-06	221
bin	9.7544e-06	212
bin	9.8256e-06	262
bin	9.8968e-06	213
bin	9.968e-06	187
bin	1.00392e-05	258
bin	1.01104e-05	244
bin	1.01816e-05	188
bin	1.02528e-05	185
bin	1.0324e-05	210
bin	1.03952e-05	161
bin	1.04664e-05	182
bin	1.05376e-05	174
bin	1.06088e-05	237
bin	1.068e-05	162
bin	1.07512e-05	178
bin	1.08224e-05	219
bin	1.08936e-05	174
bin	1.09648e-05	161
bin	1.1036e-05	146
bin	1.11072e-05	223
bin	1.11784e-05	180
bin	1.12496e-05	149
bin	1.13208e-05	161
bin	1.1392e-05	200
bin	1.14632e-05	147
bin	1.15344e-05	145
bin	1.16056e-05	176
bin	1.16768e-05	176
bin	1.1748e-05	134
bin	1.18192e-05	138
bin	1.18904e-05	179
bin	1.19616e-05	116
bin	1.20328e-05	135
bin	1.2104e-05	131
bin	1.21752e-05	157
bin	1.22464e-05	121
bin	1.23176e-05	130
bin	1.23888e-05	161
bin	1.246e-05	141
bin	1.25312e-05	123
bin	1.26024e-05	142
bin	1.26736e-05	137
bin	1.27448e-05	118
bin	1.2816e-05	125
bin	1.28872e-05	122
bin	1.29584e-05	149
bin	1.30296e-05	141
bin	1.31008e-05	111
bin	1.3172e-05	123
bin	1.32432e-05	122
bin	1.33144e-05	103
bin	1.33856e-05	100
bin	1.34568e-05	104
bin	1.3528e-05	103
bin	1.35992e-05	96
bin	1.36704e-05	121
bin	1.37416e-05	129
bin	1.38128e-05	121
bin	1.3884e-05	122
bin	1.39552e-05	119
bin	1.40264e-05	110
bin	1.40976e-05	95
bin	1.41688e-05	108
bin	1.424e-05	86
bin	1.43112e-05	83
bin	1.43824e-05	106
bin	1.44536e-05	79
bin	1.45248e-05	97
bin	1.4596e-05	84
bin	1.46672e-05	93
bin	1.47384e-05	98
bin	1.48096e-05	98
bin	1.48808e-05	98
bin	1.4952e-05	102
bin	1.50232e-05	128
bin	1.50944e-05	91
bin	1.51656e-05	97
bin	1.52368e-05	76
bin	1.5308e-05	88
bin	1.53792e-05	88
bin	1.54504e-05	86
bin	1.55216e-05	75
bin	1.55928e-05	92
bin	1.5664e-05	77
bin	1.57352e-05	59
bin	1.58064e-05	70
bin	1.58776e-05	66
bin	1.59488e-05	73
bin	1.602e-05	59
bin	1.60912e-05	82
bin	1.61624e-05	87
bin	1.62336e-05	83
bin	1.63048e-05	109
bin	1.6376e-05	88
bin	1.64472e-05	65
bin	1.65184e-05	60
bin	1.65896e-05	76
bin	1.66608e-05	68
bin	1.6732e-05	74
bin	1.68032e-05	74
bin	1.68744e-05	83
bin	1.69456e-05	66
bin	1.70168e-05	63
bin	1.7088e-05	74
bin	1.71592e-05	65
bin	1.72304e-05	60
bin	1.73016e-05	68
bin	1.73728e-05	83
bin	1.7444e-05	79
bin	1.75152e-05	68
bin	1.75864e-05	62
bin	1.76576e-05	65
bin	1.77288e-05	64
bin	1.78e-05	67
bin	1.78712e-05	65
bin	1.79424e-05	61
bin	1.80136e-05	75
bin	1.80848e-05	71
bin	1.8156e-05	67
bin	1.82272e-05	67
bin	1.82984e-05	70
bin	1.83696e-05	66
bin	1.84408e-05	79
bin	1.8512e-05	68
bin	1.85832e-05	65
bin	1.86544e-05	73
bin	1.87256e-05	54
bin	1.87968e-05	55
bin	1.8868e-05	60
bin	1.89392e-05	58
bin	1.90104e-05	52
bin	1.90816e-05	61
bin	1.91528e-05	59
bin	1.9224e-05	55
bin	1.92952e-05	51
bin	1.93664e-05	53
bin	1.94376e-05	71
bin	1.95088e-05	67
bin	1.958e-05	57
bin	1.96512e-05	70
bin	1.97224e-05	61
bin	1.97936e-05	64
bin	1.98648e-05	66
bin	1.9936e-05	54
bin	2.00072e-05	54
bin	2.00784e-05	53
bin	2.01496e-05	57
bin	2.02208e-05	53
bin	2.0292e-05	49
bin	2.03632e-05	52
bin	2.04344e-05	59
bin	2.05056e-05	48
bin	2.05768e-05	52
bin	2.0648e-05	43
bin	2.07192e-05	46
bin	2.07904e-05	49
bin	2.08616e-05	57
bin	2.09328e-05	65
bin	2.1004e-05	60
bin	2.10752e-05	63
bin	2.11464e-05	70
bin	2.12176e-05	66
bin	2.12888e-05	67
bin	2.136e-05	73
bin	2.14312e-05	57
bin	2.15024e-05	51
bin	2.15736e-05	58
bin	2.16448e-05	37
bin	2.1716e-05	38
bin	2.17872e-05	34
bin	2.18584e-05	39
bin	2.19296e-05	49
bin	2.20008e-05	48
bin	2.2072e-05	51
bin	2.21432e-05	54
bin	2.22144e-05	58
bin	2.22856e-05	65
bin	2.23568e-05	68
bin	2.2428e-05	66
bin	2.24992e-05	61
bin	2.25704e-05	69
bin	2.26416e-05	59
bin	2.27128e-05	67
bin	2.2784e-05	48
bin	2.28552e-05	39
bin	2.29264e-05	54
bin	2.29976e-05	49
bin	2.30688e-05	53
bin	2.314e-05	53
bin	2.32112e-05	50
bin	2.32824e-05	45
bin	2.33536e-05	31
bin	2.34248e-05	36
bin	2.3496e-05	44
bin	2.35672e-05	37
bin	2.36384e-05	50
bin	2.37096e-05	47
bin	2.37808e-05	33
bin	2.3852e-05	58
bin	2.39232e-05	43
bin	2.39944e-05	54
bin	2.40656e-05	52
bin	2.41368e-05	42
bin	2.4208e-05	38
bin	2.42792e-05	35
bin	2.43504e-05	34
bin	2.44216e-05	36
bin	2.44928e-05	22
bin	2.4564e-05	40
bin	2.46352e-05	46
bin	2.47064e-05	41
bin	2.47776e-05	51
bin	2.48488e-05	55
bin	2.492e-05	49
bin	2.49912e-05	40
bin	2.50624e-05	49
bin	2.51336e-05	45
bin	2.52048e-05	43
bin	2.5276e-05	51
bin	2.53472e-05	53
bin	2.54184e-05	52
bin	2.54896e-05	51
bin	2.55608e-05	53
bin	2.5632e-05	42
bin	2.57032e-05	46
bin	2.57744e-05	38
bin	2.58456e-05	33
bin	2.59168e-05	37
bin	2.5988e-05	40
bin	2.60592e-05	45
bin	2.61304e-05	40
bin	2.62016e-05	43
bin	2.62728e-05	30
bin	2.6344e-05	30
bin	2.64152e-05	33
bin	2.64864e-05	34
bin	2.65576e-05	29
bin	2.66288e-05	35
bin	2.67e-05	47
bin	2.67712e-05	45
bin	2.68424e-05	31
bin	2.69136e-05	27
bin	2.69848e-05	34
bin	2.7056e-05	26
bin	2.71272e-05	24
bin	2.71984e-05	23
bin	2.72696e-05	26
bin	2.73408e-05	41
bin	2.7412e-05	26
bin	2.74832e-05	38
bin	2.75544e-05	37
bin	2.76256e-05	38
bin	2.76968e-05	44
bin	2.7768e-05	37
bin	2.78392e-05	46
bin	2.79104e-05	35
bin	2.79816e-05	32
bin	2.80528e-05	42
bin	2.8124e-05	46
bin	2.81952e-05	40
bin	2.82664e-05	36
bin	2.83376e-05	32
bin	2.84088e-05	31
bin	2.848e-05	26
bin	2.85512e-05	27
bin	2.86224e-05	30
bin	2.86936e-05	32
bin	2.87648e-05	34
bin	2.8836e-05	48
bin	2.89072e-05	38
bin	2.89784e-05	43
bin	2.90496e-05	38
bin	2.91208e-05	33
bin	2.9192e-05	27
bin	2.92632e-05	40
bin	2.93344e-05	21
bin	2.94056e-05	26
bin	2.94768e-05	20
bin	2.9548e-05	30
bin	2.96192e-05	25
bin	2.96904e-05	28
bin	2.97616e-05	28
bin	2.98328e-05	23
bin	2.9904e-05	38
bin	2.99752e-05	32
bin	3.00464e-05	39
bin	3.01176e-05	37
bin	3.01888e-05	36
bin	3.026e-05	31
bin	3.03312e-05	35
bin	3.04024e-05	35
bin	3.04736e-05	31
bin	3.05448e-05	23
bin	3.0616e-05	32
bin	3.06872e-05	26
bin	3.07584e-05	23
bin	3.08296e-05	28
bin	3.09008e-05	21
bin	3.0972e-05	25
bin	3.10432e-05	19
bin	3.11144e-05	20
bin	3.11856e-05	15
bin	3.12568e-05	21
bin	3.1328e-05	17
bin	3.13992e-05	16
bin	3.14704e-05	34
bin	3.15416e-05	31
bin	3.16128e-05	31
bin	3.1684e-05	26
bin	3.17552e-05	33
bin	3.18264e-05	36
bin	3.18976e-05	38
bin	3.19688e-05	40
bin	3.204e-05	37
bin	3.21112e-05	36
bin	3.21824e-05	20
bin	3.22536e-05	22
bin	3.23248e-05	25
bin	3.2396e-05	24
bin	3.24672e-05	26
bin	3.25384e-05	22
bin	3.26096e-05	25
bin	3.26808e-05	26
bin	3.2752e-05	25
bin	3.28232e-05	21
bin	3.28944e-05	28
bin	3.29656e-05	21
bin	3.30368e-05	16
bin	3.3108e-05	27
bin	3.31792e-05	25
bin	3.32504e-05	22
bin	3.33216e-05	18
bin	3.33928e-05	16
bin	3.3464e-05	21
bin	3.35352e-05	22
bin	3.36064e-05	19
bin	3.36776e-05	21
bin	3.37488e-05	26
bin	3.382e-05	26
bin	3.38912e-05	19
bin	3.39624e-05	25
bin	3.40336e-05	20
bin	3.41048e-05	16
bin	3.4176e-05	24
bin	3.42472e-05	23
bin	3.43184e-05	33
bin	3.43896e-05	31
bin	3.44608e-05	22
bin	3.4532e-05	24
bin	3.46032e-05	25
bin	3.46744e-05	23
bin	3.47456e-05	20
bin	3.48168e-05	17
bin	3.4888e-05	19
bin	3.49592e-05	19
bin	3.50304e-05	21
bin	3.51016e-05	16
bin	3.51728e-05	22
bin	3.5244e-05	15
bin	3.53152e-05	16
bin	3.53864e-05	15
bin	3.54576e-05	13
bin	3.55288e-05	16
bin	3.56e-05	3083
statistic Torus3d_bub.timer 	"Life Times"
field count 6291456
field mean 2.3506677194489e-05
field stddev 1.9097205992383e-05
field sum 147.89122527533
field sqrsum 0.0057709455462527
field min 5.2e-07
field max 0.001057704999996
bin	-INF	0
bin	0	124
bin	8.544e-07	3580
bin	1.7088e-06	11798
bin	2.5632e-06	24694
bin	3.4176e-06	37554
bin	4.272e-06	47785
bin	5.1264e-06	57954
bin	5.9808e-06	67183
bin	6.8352e-06	75505
bin	7.6896e-06	84412
bin	8.544e-06	94157
bin	9.3984e-06	104827
bin	1.02528e-05	113345
bin	1.11072e-05	115547
bin	1.19616e-05	121277
bin	1.2816e-05	128431
bin	1.36704e-05	135260
bin	1.45248e-05	144479
bin	1.53792e-05	153649
bin	1.62336e-05	162952
bin	1.7088e-05	174374
bin	1.79424e-05	184515
bin	1.87968e-05	198140
bin	1.96512e-05	209169
bin	2.05056e-05	223911
bin	2.136e-05	238246
bin	2.22144e-05	249981
bin	2.30688e-05	261343
bin	2.39232e-05	268016
bin	2.47776e-05	269720
bin	2.5632e-05	267062
bin	2.64864e-05	257753
bin	2.73408e-05	241004
bin	2.81952e-05	222078
bin	2.90496e-05	199324
bin	2.9904e-05	176873
bin	3.07584e-05	153831
bin	3.16128e-05	131689
bin	3.24672e-05	112036
bin	3.33216e-05	92854
bin	3.4176e-05	77098
bin	3.50304e-05	63268
bin	3.58848e-05	51924
bin	3.67392e-05	42242
bin	3.75936e-05	34033
bin	3.8448e-05	27650
bin	3.93024e-05	22558
bin	4.01568e-05	18418
bin	4.10112e-05	15189
bin	4.18656e-05	11613
bin	4.272e-05	9291
bin	4.35744e-05	7195
bin	4.44288e-05	5828
bin	4.52832e-05	4918
bin	4.61376e-05	4056
bin	4.6992e-05	3635
bin	4.78464e-05	3161
bin	4.87008e-05	2706
bin	4.95552e-05	2370
bin	5.04096e-05	2302
bin	5.1264e-05	1950
bin	5.21184e-05	1607
bin	5.29728e-05	1536
bin	5.38272e-05	1425
bin	5.46816e-05	1298
bin	5.5536e-05	1161
bin	5.63904e-05	1126
bin	5.72448e-05	1005
bin	5.80992e-05	908
bin	5.89536e-05	914
bin	5.9808e-05	908
bin	6.06624e-05	855
bin	6.15168e-05	758
bin	6.23712e-05	734
bin	6.32256e-05	719
bin	6.408e-05	681
bin	6.49344e-05	681
bin	6.57888e-05	642
bin	6.66432e-05	579
bin	6.74976e-05	559
bin	6.8352e-05	544
bin	6.92064e-05	527
bin	7.00608e-05	494
bin	7.09152e-05	524
bin	7.17696e-05	456
bin	7.2624e-05	444
bin	7.34784e-05	454
bin	7.43328e-05	470
bin	7.51872e-05	455
bin	7.60416e-05	455
bin	7.6896e-05	489
bin	7.77504e-05	485
bin	7.86048e-05	436
bin	7.94592e-05	426
bin	8.03136e-05	421
bin	8.1168e-05	456
bin	8.20224e-05	372
bin	8.28768e-05	383
bin	8.37312e-05	369
bin	8.45856e-05	349
bin	8.544e-05	346
bin	8.62944e-05	343
bin	8.71488e-05	337
bin	8.80032e-05	315
bin	8.88576e-05	292
bin	8.9712e-05	283
bin	9.05664e-05	285
bin	9.14208e-05	307
bin	9.22752e-05	306
bin	9.31296e-05	296
bin	9.3984e-05	288
bin	9.48384e-05	277
bin	9.56928e-05	254
bin	9.65472e-05	256
bin	9.74016e-05	244
bin	9.8256e-05	243
bin	9.91104e-05	262
bin	9.99648e-05	271
bin	0.0001008192	252
bin	0.0001016736	226
bin	0.000102528	231
bin	0.0001033824	240
bin	0.0001042368	227
bin	0.0001050912	211
bin	0.0001059456	205
bin	0.0001068	205
bin	0.0001076544	200
bin	0.0001085088	201
bin	0.0001093632	178
bin	0.0001102176	173
bin	0.000111072	200
bin	0.0001119264	223
bin	0.0001127808	221
bin	0.0001136352	234
bin	0.0001144896	228
bin	0.000115344	256
bin	0.0001161984	230
bin	0.0001170528	240
bin	0.0001179072	230
bin	0.0001187616	216
bin	0.000119616	196
bin	0.0001204704	212
bin	0.0001213248	198
bin	0.0001221792	211
bin	0.0001230336	215
bin	0.000123888	204
bin	0.0001247424	178
bin	0.0001255968	187
bin	0.0001264512	145
bin	0.0001273056	175
bin	0.00012816	165
bin	0.0001290144	160
bin	0.0001298688	148
bin	0.0001307232	142
bin	0.0001315776	134
bin	0.000132432	131
bin	0.0001332864	129
bin	0.0001341408	141
bin	0.0001349952	120
bin	0.0001358496	117
bin	0.000136704	101
bin	0.0001375584	125
bin	0.0001384128	105
bin	0.0001392672	115
bin	0.0001401216	124
bin	0.000140976	120
bin	0.0001418304	118
bin	0.0001426848	118
bin	0.0001435392	119
bin	0.0001443936	106
bin	0.000145248	106
bin	0.0001461024	118
bin	0.0001469568	138
bin	0.0001478112	145
bin	0.0001486656	158
bin	0.00014952	130
bin	0.0001503744	132
bin	0.0001512288	133
bin	0.0001520832	145
bin	0.0001529376	128
bin	0.000153792	128
bin	0.0001546464	141
bin	0.0001555008	161
bin	0.0001563552	148
bin	0.0001572096	154
bin	0.000158064	144
bin	0.0001589184	151
bin	0.0001597728	144
bin	0.0001606272	158
bin	0.0001614816	149
bin	0.000162336	170
bin	0.0001631904	135
bin	0.0001640448	137
bin	0.0001648992	155
bin	0.0001657536	148
bin	0.000166608	138
bin	0.0001674624	159
bin	0.0001683168	132
bin	0.0001691712	124
bin	0.0001700256	104
bin	0.00017088	93
bin	0.0001717344	102
bin	0.0001725888	116
bin	0.0001734432	103
bin	0.0001742976	87
bin	0.000175152	105
bin	0.0001760064	98
bin	0.0001768608	83
bin	0.0001777152	107
bin	0.0001785696	99
bin	0.000179424	107
bin	0.0001802784	88
bin	0.0001811328	91
bin	0.0001819872	78
bin	0.0001828416	79
bin	0.000183696	77
bin	0.0001845504	61
bin	0.0001854048	66
bin	0.0001862592	55
bin	0.0001871136	60
bin	0.000187968	57
bin	0.0001888224	62
bin	0.0001896768	62
bin	0.0001905312	75
bin	0.0001913856	79
bin	0.00019224	94
bin	0.0001930944	95
bin	0.0001939488	94
bin	0.0001948032	121
bin	0.0001956576	107
bin	0.000196512	127
bin	0.0001973664	107
bin	0.0001982208	103
bin	0.0001990752	103
bin	0.0001999296	88
bin	0.000200784	100
bin	0.0002016384	80
bin	0.0002024928	95
bin	0.0002033472	99
bin	0.0002042016	99
bin	0.000205056	106
bin	0.0002059104	81
bin	0.0002067648	85
bin	0.0002076192	77
bin	0.0002084736	81
bin	0.000209328	80
bin	0.0002101824	87
bin	0.0002110368	78
bin	0.0002118912	86
bin	0.0002127456	73
bin	0.0002136	48
bin	0.0002144544	61
bin	0.0002153088	56
bin	0.0002161632	36
bin	0.0002170176	68
bin	0.000217872	51
bin	0.0002187264	49
bin	0.0002195808	53
bin	0.0002204352	65
bin	0.0002212896	57
bin	0.000222144	53
bin	0.0002229984	65
bin	0.0002238528	66
bin	0.0002247072	62
bin	0.0002255616	60
bin	0.000226416	61
bin	0.0002272704	50
bin	0.0002281248	44
bin	0.0002289792	50
bin	0.0002298336	51
bin	0.000230688	65
bin	0.0002315424	53
bin	0.0002323968	57
bin	0.0002332512	52
bin	0.0002341056	68
bin	0.00023496	60
bin	0.0002358144	70
bin	0.0002366688	73
bin	0.0002375232	68
bin	0.0002383776	65
bin	0.000239232	78
bin	0.0002400864	76
bin	0.0002409408	77
bin	0.0002417952	75
bin	0.0002426496	78
bin	0.000243504	70
bin	0.0002443584	58
bin	0.0002452128	53
bin	0.0002460672	70
bin	0.0002469216	62
bin	0.000247776	63
bin	0.0002486304	65
bin	0.0002494848	63
bin	0.0002503392	53
bin	0.0002511936	60
bin	0.000252048	56
bin	0.0002529024	76
bin	0.0002537568	75
bin	0.0002546112	64
bin	0.0002554656	72
bin	0.00025632	69
bin	0.0002571744	60
bin	0.0002580288	64
bin	0.0002588832	68
bin	0.0002597376	69
bin	0.000260592	57
bin	0.0002614464	57
bin	0.0002623008	53
bin	0.0002631552	50
bin	0.0002640096	43
bin	0.000264864	40
bin	0.0002657184	47
bin	0.0002665728	41
bin	0.0002674272	33
bin	0.0002682816	33
bin	0.000269136	29
bin	0.0002699904	39
bin	0.0002708448	34
bin	0.0002716992	44
bin	0.0002725536	49
bin	0.000273408	51
bin	0.0002742624	43
bin	0.0002751168	55
bin	0.0002759712	57
bin	0.0002768256	59
bin	0.00027768	42
bin	0.0002785344	53
bin	0.0002793888	53
bin	0.0002802432	47
bin	0.0002810976	66
bin	0.000281952	63
bin	0.0002828064	42
bin	0.0002836608	53
bin	0.0002845152	56
bin	0.0002853696	63
bin	0.000286224	60
bin	0.0002870784	56
bin	0.0002879328	60
bin	0.0002887872	57
bin	0.0002896416	60
bin	0.000290496	63
bin	0.0002913504	50
bin	0.0002922048	57
bin	0.0002930592	65
bin	0.0002939136	63
bin	0.000294768	37
bin	0.0002956224	46
bin	0.0002964768	44
bin	0.0002973312	36
bin	0.0002981856	46
bin	0.00029904	46
bin	0.0002998944	39
bin	0.0003007488	37
bin	0.0003016032	48
bin	0.0003024576	35
bin	0.000303312	42
bin	0.0003041664	43
bin	0.0003050208	37
bin	0.0003058752	35
bin	0.0003067296	33
bin	0.000307584	32
bin	0.0003084384	27
bin	0.0003092928	26
bin	0.0003101472	34
bin	0.0003110016	23
bin	0.000311856	25
bin	0.0003127104	22
bin	0.0003135648	30
bin	0.0003144192	29
bin	0.0003152736	46
bin	0.000316128	46
bin	0.0003169824	61
bin	0.0003178368	63
bin	0.0003186912	56
bin	0.0003195456	54
bin	0.0003204	64
bin	0.0003212544	63
bin	0.0003221088	50
bin	0.0003229632	57
bin	0.0003238176	68
bin	0.000324672	58
bin	0.0003255264	38
bin	0.0003263808	29
bin	0.0003272352	27
bin	0.0003280896	31
bin	0.000328944	38
bin	0.0003297984	39
bin	0.0003306528	40
bin	0.0003315072	37
bin	0.0003323616	42
bin	0.000333216	51
bin	0.0003340704	53
bin	0.0003349248	39
bin	0.0003357792	48
bin	0.0003366336	33
bin	0.000337488	40
bin	0.0003383424	45
bin	0.0003391968	29
bin	0.0003400512	29
bin	0.0003409056	33
bin	0.00034176	36
bin	0.0003426144	28
bin	0.0003434688	22
bin	0.0003443232	27
bin	0.0003451776	24
bin	0.000346032	34
bin	0.0003468864	26
bin	0.0003477408	27
bin	0.0003485952	26
bin	0.0003494496	26
bin	0.000350304	33
bin	0.0003511584	23
bin	0.0003520128	23
bin	0.0003528672	22
bin	0.0003537216	33
bin	0.000354576	34
bin	0.0003554304	51
bin	0.0003562848	47
bin	0.0003571392	31
bin	0.0003579936	33
bin	0.000358848	53
bin	0.0003597024	46
bin	0.0003605568	41
bin	0.0003614112	50
bin	0.0003622656	43
bin	0.00036312	25
bin	0.0003639744	38
bin	0.0003648288	27
bin	0.0003656832	30
bin	0.0003665376	29
bin	0.000367392	36
bin	0.0003682464	34
bin	0.0003691008	37
bin	0.0003699552	36
bin	0.0003708096	42
bin	0.000371664	37
bin	0.0003725184	40
bin	0.0003733728	33
bin	0.0003742272	22
bin	0.0003750816	19
bin	0.000375936	25
bin	0.0003767904	18
bin	0.0003776448	32
bin	0.0003784992	39
bin	0.0003793536	36
bin	0.000380208	25
bin	0.0003810624	30
bin	0.0003819168	27
bin	0.0003827712	34
bin	0.0003836256	23
bin	0.00038448	18
bin	0.0003853344	27
bin	0.0003861888	20
bin	0.0003870432	27
bin	0.0003878976	22
bin	0.000388752	25
bin	0.0003896064	22
bin	0.0003904608	21
bin	0.0003913152	16
bin	0.0003921696	15
bin	0.000393024	32
bin	0.0003938784	40
bin	0.0003947328	42
bin	0.0003955872	49
bin	0.0003964416	35
bin	0.000397296	39
bin	0.0003981504	38
bin	0.0003990048	43
bin	0.0003998592	30
bin	0.0004007136	38
bin	0.000401568	39
bin	0.0004024224	32
bin	0.0004032768	38
bin	0.0004041312	41
bin	0.0004049856	26
bin	0.00040584	26
bin	0.0004066944	28
bin	0.0004075488	22
bin	0.0004084032	23
bin	0.0004092576	24
bin	0.000410112	26
bin	0.0004109664	22
bin	0.0004118208	21
bin	0.0004126752	26
bin	0.0004135296	23
bin	0.000414384	20
bin	0.0004152384	24
bin	0.0004160928	27
bin	0.0004169472	25
bin	0.0004178016	32
bin	0.000418656	28
bin	0.0004195104	28
bin	0.0004203648	27
bin	0.0004212192	22
bin	0.0004220736	28
bin	0.000422928	20
bin	0.0004237824	13
bin	0.0004246368	24
bin	0.0004254912	22
bin	0.0004263456	22
bin	0.0004272	2670
