version 2
run Permutation-19-20120710-21:23:15-28085
attr alg 3
attr buf 8
attr configname Permutation
attr datetime 20120710-21:23:15
attr delta 1
attr experiment Permutation
attr ext true
attr inifile altro.ini
attr iterationvars "$buf=8, $ext=true, $ofedge=1, $delta=1, $alg=3"
attr iterationvars2 "$buf=8, $ext=true, $ofedge=1, $delta=1, $alg=3, $repetition=0"
attr measurement "$buf=8, $ext=true, $ofedge=1, $delta=1, $alg=3"
attr network Torus3d_bub
attr ofedge 1
attr processid 28085
attr repetition 0
attr replication #0
attr resultdir altro-results
attr runnumber 19
attr seedset 19

scalar . 	alg 	3
scalar . 	buf 	8
scalar . 	delta 	1
scalar . 	ofedge 	1
scalar Torus3d_bub.timer 	#endTime 	0.003796956327407
scalar Torus3d_bub.timer 	#totalHops 	84751366
scalar Torus3d_bub.timer 	#totalPacks 	6291456
scalar Torus3d_bub.timer 	#totalDerouted 	2305514
scalar Torus3d_bub.timer 	#totalOutFlanked 	1811123
scalar Torus3d_bub.timer 	#totalCQRed 	494391
scalar Torus3d_bub.timer 	#LB 	0.000786432
scalar Torus3d_bub.timer 	#ratio 	0.20712168700056
statistic Torus3d_bub.timer 	"Hop Times"
field count 6291456
field mean 0.00011125402839424
field stddev 0.00010032129558177
field sum 699.94982446509
field sqrsum 0.14119172045671
field min 4.03791666e-07
field max 0.002111195665177
bin	-INF	0
bin	0	0
bin	7.12e-08	0
bin	1.424e-07	0
bin	2.136e-07	0
bin	2.848e-07	0
bin	3.56e-07	24
bin	4.272e-07	665
bin	4.984e-07	2007
bin	5.696e-07	3095
bin	6.408e-07	4299
bin	7.12e-07	5606
bin	7.832e-07	7127
bin	8.544e-07	8515
bin	9.256e-07	10368
bin	9.968e-07	12092
bin	1.068e-06	13981
bin	1.1392e-06	16006
bin	1.2104e-06	18372
bin	1.2816e-06	20677
bin	1.3528e-06	23576
bin	1.424e-06	26547
bin	1.4952e-06	29282
bin	1.5664e-06	31787
bin	1.6376e-06	34027
bin	1.7088e-06	35980
bin	1.78e-06	37241
bin	1.8512e-06	37137
bin	1.9224e-06	37146
bin	1.9936e-06	36648
bin	2.0648e-06	34968
bin	2.136e-06	33393
bin	2.2072e-06	31628
bin	2.2784e-06	29784
bin	2.3496e-06	27864
bin	2.4208e-06	26143
bin	2.492e-06	24326
bin	2.5632e-06	22425
bin	2.6344e-06	20951
bin	2.7056e-06	19248
bin	2.7768e-06	18069
bin	2.848e-06	16630
bin	2.9192e-06	15492
bin	2.9904e-06	14634
bin	3.0616e-06	13567
bin	3.1328e-06	12750
bin	3.204e-06	11778
bin	3.2752e-06	11173
bin	3.3464e-06	10546
bin	3.4176e-06	9976
bin	3.4888e-06	9528
bin	3.56e-06	8969
bin	3.6312e-06	8497
bin	3.7024e-06	8216
bin	3.7736e-06	7854
bin	3.8448e-06	7371
bin	3.916e-06	7029
bin	3.9872e-06	6806
bin	4.0584e-06	6604
bin	4.1296e-06	6407
bin	4.2008e-06	6174
bin	4.272e-06	5924
bin	4.3432e-06	5617
bin	4.4144e-06	5519
bin	4.4856e-06	5497
bin	4.5568e-06	5258
bin	4.628e-06	5203
bin	4.6992e-06	5022
bin	4.7704e-06	4805
bin	4.8416e-06	4578
bin	4.9128e-06	4466
bin	4.984e-06	4365
bin	5.0552e-06	4348
bin	5.1264e-06	4172
bin	5.1976e-06	4028
bin	5.2688e-06	3809
bin	5.34e-06	3828
bin	5.4112e-06	3733
bin	5.4824e-06	3729
bin	5.5536e-06	3695
bin	5.6248e-06	3597
bin	5.696e-06	3445
bin	5.7672e-06	3403
bin	5.8384e-06	3422
bin	5.9096e-06	3350
bin	5.9808e-06	3265
bin	6.052e-06	3222
bin	6.1232e-06	3229
bin	6.1944e-06	3127
bin	6.2656e-06	3157
bin	6.3368e-06	3043
bin	6.408e-06	3055
bin	6.4792e-06	2963
bin	6.5504e-06	2907
bin	6.6216e-06	2931
bin	6.6928e-06	2865
bin	6.764e-06	2760
bin	6.8352e-06	2735
bin	6.9064e-06	2658
bin	6.9776e-06	2734
bin	7.0488e-06	2658
bin	7.12e-06	2675
bin	7.1912e-06	2623
bin	7.2624e-06	2492
bin	7.3336e-06	2503
bin	7.4048e-06	2502
bin	7.476e-06	2462
bin	7.5472e-06	2513
bin	7.6184e-06	2494
bin	7.6896e-06	2381
bin	7.7608e-06	2527
bin	7.832e-06	2348
bin	7.9032e-06	2317
bin	7.9744e-06	2251
bin	8.0456e-06	2354
bin	8.1168e-06	2287
bin	8.188e-06	2363
bin	8.2592e-06	2300
bin	8.3304e-06	2153
bin	8.4016e-06	2168
bin	8.4728e-06	2152
bin	8.544e-06	2181
bin	8.6152e-06	2177
bin	8.6864e-06	2159
bin	8.7576e-06	2165
bin	8.8288e-06	2137
bin	8.9e-06	2107
bin	8.9712e-06	2098
bin	9.0424e-06	2066
bin	9.1136e-06	2144
bin	9.1848e-06	2102
bin	9.256e-06	2039
bin	9.3272e-06	2098
bin	9.3984e-06	2118
bin	9.4696e-06	2142
bin	9.5408e-06	2063
bin	9.612e-06	2085
bin	9.6832e-06	2118
bin	9.7544e-06	2060
bin	9.8256e-06	1994
bin	9.8968e-06	2078
bin	9.968e-06	2012
bin	1.00392e-05	1963
bin	1.01104e-05	1934
bin	1.01816e-05	1921
bin	1.02528e-05	1921
bin	1.0324e-05	1957
bin	1.03952e-05	1875
bin	1.04664e-05	1891
bin	1.05376e-05	1861
bin	1.06088e-05	1868
bin	1.068e-05	1861
bin	1.07512e-05	1819
bin	1.08224e-05	1890
bin	1.08936e-05	1807
bin	1.09648e-05	1765
bin	1.1036e-05	1791
bin	1.11072e-05	1803
bin	1.11784e-05	1806
bin	1.12496e-05	1797
bin	1.13208e-05	1865
bin	1.1392e-05	1858
bin	1.14632e-05	1779
bin	1.15344e-05	1734
bin	1.16056e-05	1773
bin	1.16768e-05	1728
bin	1.1748e-05	1755
bin	1.18192e-05	1662
bin	1.18904e-05	1620
bin	1.19616e-05	1736
bin	1.20328e-05	1624
bin	1.2104e-05	1646
bin	1.21752e-05	1612
bin	1.22464e-05	1606
bin	1.23176e-05	1587
bin	1.23888e-05	1640
bin	1.246e-05	1581
bin	1.25312e-05	1585
bin	1.26024e-05	1586
bin	1.26736e-05	1628
bin	1.27448e-05	1589
bin	1.2816e-05	1524
bin	1.28872e-05	1591
bin	1.29584e-05	1549
bin	1.30296e-05	1408
bin	1.31008e-05	1497
bin	1.3172e-05	1518
bin	1.32432e-05	1480
bin	1.33144e-05	1434
bin	1.33856e-05	1450
bin	1.34568e-05	1441
bin	1.3528e-05	1498
bin	1.35992e-05	1423
bin	1.36704e-05	1416
bin	1.37416e-05	1511
bin	1.38128e-05	1433
bin	1.3884e-05	1530
bin	1.39552e-05	1411
bin	1.40264e-05	1443
bin	1.40976e-05	1486
bin	1.41688e-05	1444
bin	1.424e-05	1494
bin	1.43112e-05	1480
bin	1.43824e-05	1408
bin	1.44536e-05	1454
bin	1.45248e-05	1462
bin	1.4596e-05	1392
bin	1.46672e-05	1470
bin	1.47384e-05	1396
bin	1.48096e-05	1419
bin	1.48808e-05	1394
bin	1.4952e-05	1448
bin	1.50232e-05	1479
bin	1.50944e-05	1398
bin	1.51656e-05	1364
bin	1.52368e-05	1372
bin	1.5308e-05	1400
bin	1.53792e-05	1280
bin	1.54504e-05	1368
bin	1.55216e-05	1353
bin	1.55928e-05	1326
bin	1.5664e-05	1328
bin	1.57352e-05	1357
bin	1.58064e-05	1375
bin	1.58776e-05	1399
bin	1.59488e-05	1389
bin	1.602e-05	1371
bin	1.60912e-05	1394
bin	1.61624e-05	1325
bin	1.62336e-05	1340
bin	1.63048e-05	1351
bin	1.6376e-05	1364
bin	1.64472e-05	1308
bin	1.65184e-05	1289
bin	1.65896e-05	1300
bin	1.66608e-05	1323
bin	1.6732e-05	1332
bin	1.68032e-05	1361
bin	1.68744e-05	1340
bin	1.69456e-05	1401
bin	1.70168e-05	1402
bin	1.7088e-05	1352
bin	1.71592e-05	1356
bin	1.72304e-05	1368
bin	1.73016e-05	1387
bin	1.73728e-05	1341
bin	1.7444e-05	1388
bin	1.75152e-05	1344
bin	1.75864e-05	1315
bin	1.76576e-05	1264
bin	1.77288e-05	1298
bin	1.78e-05	1289
bin	1.78712e-05	1366
bin	1.79424e-05	1321
bin	1.80136e-05	1335
bin	1.80848e-05	1364
bin	1.8156e-05	1305
bin	1.82272e-05	1365
bin	1.82984e-05	1355
bin	1.83696e-05	1347
bin	1.84408e-05	1347
bin	1.8512e-05	1370
bin	1.85832e-05	1387
bin	1.86544e-05	1399
bin	1.87256e-05	1364
bin	1.87968e-05	1304
bin	1.8868e-05	1332
bin	1.89392e-05	1290
bin	1.90104e-05	1314
bin	1.90816e-05	1292
bin	1.91528e-05	1329
bin	1.9224e-05	1348
bin	1.92952e-05	1301
bin	1.93664e-05	1313
bin	1.94376e-05	1277
bin	1.95088e-05	1280
bin	1.958e-05	1235
bin	1.96512e-05	1299
bin	1.97224e-05	1301
bin	1.97936e-05	1262
bin	1.98648e-05	1200
bin	1.9936e-05	1275
bin	2.00072e-05	1206
bin	2.00784e-05	1243
bin	2.01496e-05	1252
bin	2.02208e-05	1263
bin	2.0292e-05	1314
bin	2.03632e-05	1287
bin	2.04344e-05	1361
bin	2.05056e-05	1325
bin	2.05768e-05	1321
bin	2.0648e-05	1386
bin	2.07192e-05	1267
bin	2.07904e-05	1279
bin	2.08616e-05	1222
bin	2.09328e-05	1291
bin	2.1004e-05	1227
bin	2.10752e-05	1256
bin	2.11464e-05	1266
bin	2.12176e-05	1268
bin	2.12888e-05	1297
bin	2.136e-05	1203
bin	2.14312e-05	1208
bin	2.15024e-05	1256
bin	2.15736e-05	1255
bin	2.16448e-05	1293
bin	2.1716e-05	1214
bin	2.17872e-05	1245
bin	2.18584e-05	1201
bin	2.19296e-05	1203
bin	2.20008e-05	1200
bin	2.2072e-05	1197
bin	2.21432e-05	1231
bin	2.22144e-05	1238
bin	2.22856e-05	1166
bin	2.23568e-05	1101
bin	2.2428e-05	1145
bin	2.24992e-05	1142
bin	2.25704e-05	1154
bin	2.26416e-05	1209
bin	2.27128e-05	1287
bin	2.2784e-05	1206
bin	2.28552e-05	1267
bin	2.29264e-05	1201
bin	2.29976e-05	1256
bin	2.30688e-05	1186
bin	2.314e-05	1238
bin	2.32112e-05	1262
bin	2.32824e-05	1244
bin	2.33536e-05	1270
bin	2.34248e-05	1217
bin	2.3496e-05	1208
bin	2.35672e-05	1242
bin	2.36384e-05	1208
bin	2.37096e-05	1164
bin	2.37808e-05	1188
bin	2.3852e-05	1184
bin	2.39232e-05	1244
bin	2.39944e-05	1246
bin	2.40656e-05	1277
bin	2.41368e-05	1228
bin	2.4208e-05	1270
bin	2.42792e-05	1275
bin	2.43504e-05	1268
bin	2.44216e-05	1252
bin	2.44928e-05	1235
bin	2.4564e-05	1243
bin	2.46352e-05	1232
bin	2.47064e-05	1237
bin	2.47776e-05	1388
bin	2.48488e-05	1307
bin	2.492e-05	1284
bin	2.49912e-05	1322
bin	2.50624e-05	1317
bin	2.51336e-05	1276
bin	2.52048e-05	1258
bin	2.5276e-05	1282
bin	2.53472e-05	1323
bin	2.54184e-05	1336
bin	2.54896e-05	1284
bin	2.55608e-05	1285
bin	2.5632e-05	1221
bin	2.57032e-05	1227
bin	2.57744e-05	1229
bin	2.58456e-05	1196
bin	2.59168e-05	1242
bin	2.5988e-05	1236
bin	2.60592e-05	1261
bin	2.61304e-05	1258
bin	2.62016e-05	1268
bin	2.62728e-05	1278
bin	2.6344e-05	1281
bin	2.64152e-05	1282
bin	2.64864e-05	1262
bin	2.65576e-05	1272
bin	2.66288e-05	1237
bin	2.67e-05	1261
bin	2.67712e-05	1296
bin	2.68424e-05	1300
bin	2.69136e-05	1273
bin	2.69848e-05	1236
bin	2.7056e-05	1291
bin	2.71272e-05	1332
bin	2.71984e-05	1224
bin	2.72696e-05	1269
bin	2.73408e-05	1197
bin	2.7412e-05	1261
bin	2.74832e-05	1175
bin	2.75544e-05	1302
bin	2.76256e-05	1298
bin	2.76968e-05	1292
bin	2.7768e-05	1273
bin	2.78392e-05	1274
bin	2.79104e-05	1302
bin	2.79816e-05	1216
bin	2.80528e-05	1213
bin	2.8124e-05	1202
bin	2.81952e-05	1274
bin	2.82664e-05	1245
bin	2.83376e-05	1318
bin	2.84088e-05	1266
bin	2.848e-05	1255
bin	2.85512e-05	1242
bin	2.86224e-05	1228
bin	2.86936e-05	1272
bin	2.87648e-05	1237
bin	2.8836e-05	1201
bin	2.89072e-05	1137
bin	2.89784e-05	1135
bin	2.90496e-05	1208
bin	2.91208e-05	1216
bin	2.9192e-05	1206
bin	2.92632e-05	1293
bin	2.93344e-05	1202
bin	2.94056e-05	1262
bin	2.94768e-05	1250
bin	2.9548e-05	1291
bin	2.96192e-05	1234
bin	2.96904e-05	1185
bin	2.97616e-05	1244
bin	2.98328e-05	1246
bin	2.9904e-05	1210
bin	2.99752e-05	1258
bin	3.00464e-05	1289
bin	3.01176e-05	1314
bin	3.01888e-05	1242
bin	3.026e-05	1220
bin	3.03312e-05	1223
bin	3.04024e-05	1276
bin	3.04736e-05	1236
bin	3.05448e-05	1200
bin	3.0616e-05	1192
bin	3.06872e-05	1182
bin	3.07584e-05	1233
bin	3.08296e-05	1217
bin	3.09008e-05	1165
bin	3.0972e-05	1224
bin	3.10432e-05	1163
bin	3.11144e-05	1205
bin	3.11856e-05	1182
bin	3.12568e-05	1233
bin	3.1328e-05	1259
bin	3.13992e-05	1177
bin	3.14704e-05	1192
bin	3.15416e-05	1194
bin	3.16128e-05	1215
bin	3.1684e-05	1210
bin	3.17552e-05	1224
bin	3.18264e-05	1241
bin	3.18976e-05	1190
bin	3.19688e-05	1225
bin	3.204e-05	1261
bin	3.21112e-05	1213
bin	3.21824e-05	1191
bin	3.22536e-05	1219
bin	3.23248e-05	1185
bin	3.2396e-05	1235
bin	3.24672e-05	1228
bin	3.25384e-05	1232
bin	3.26096e-05	1247
bin	3.26808e-05	1266
bin	3.2752e-05	1275
bin	3.28232e-05	1339
bin	3.28944e-05	1256
bin	3.29656e-05	1299
bin	3.30368e-05	1293
bin	3.3108e-05	1316
bin	3.31792e-05	1294
bin	3.32504e-05	1316
bin	3.33216e-05	1272
bin	3.33928e-05	1269
bin	3.3464e-05	1296
bin	3.35352e-05	1269
bin	3.36064e-05	1259
bin	3.36776e-05	1354
bin	3.37488e-05	1327
bin	3.382e-05	1297
bin	3.38912e-05	1264
bin	3.39624e-05	1234
bin	3.40336e-05	1271
bin	3.41048e-05	1337
bin	3.4176e-05	1286
bin	3.42472e-05	1222
bin	3.43184e-05	1277
bin	3.43896e-05	1299
bin	3.44608e-05	1255
bin	3.4532e-05	1249
bin	3.46032e-05	1260
bin	3.46744e-05	1268
bin	3.47456e-05	1353
bin	3.48168e-05	1321
bin	3.4888e-05	1305
bin	3.49592e-05	1275
bin	3.50304e-05	1301
bin	3.51016e-05	1328
bin	3.51728e-05	1305
bin	3.5244e-05	1312
bin	3.53152e-05	1266
bin	3.53864e-05	1268
bin	3.54576e-05	1316
bin	3.55288e-05	1318
bin	3.56e-05	4624563
statistic Torus3d_bub.timer 	"Life Times"
field count 6291456
field mean 0.0013726992293925
field stddev 0.00096605311692016
field sum 8636.2768029567
field sqrsum 17.726565152971
field min 6.7133333e-07
field max 0.00354783066123
bin	-INF	0
bin	0	14
bin	8.544e-07	333
bin	1.7088e-06	1127
bin	2.5632e-06	2122
bin	3.4176e-06	3266
bin	4.272e-06	4410
bin	5.1264e-06	5651
bin	5.9808e-06	6837
bin	6.8352e-06	8177
bin	7.6896e-06	9512
bin	8.544e-06	10848
bin	9.3984e-06	12635
bin	1.02528e-05	14162
bin	1.11072e-05	14969
bin	1.19616e-05	16103
bin	1.2816e-05	17321
bin	1.36704e-05	18355
bin	1.45248e-05	19153
bin	1.53792e-05	20219
bin	1.62336e-05	21326
bin	1.7088e-05	22066
bin	1.79424e-05	23238
bin	1.87968e-05	24378
bin	1.96512e-05	25797
bin	2.05056e-05	27125
bin	2.136e-05	28431
bin	2.22144e-05	30012
bin	2.30688e-05	31566
bin	2.39232e-05	33091
bin	2.47776e-05	34356
bin	2.5632e-05	34152
bin	2.64864e-05	33174
bin	2.73408e-05	31683
bin	2.81952e-05	29984
bin	2.90496e-05	28110
bin	2.9904e-05	25934
bin	3.07584e-05	23869
bin	3.16128e-05	21837
bin	3.24672e-05	19830
bin	3.33216e-05	17972
bin	3.4176e-05	16021
bin	3.50304e-05	14330
bin	3.58848e-05	12920
bin	3.67392e-05	11969
bin	3.75936e-05	10881
bin	3.8448e-05	10183
bin	3.93024e-05	9546
bin	4.01568e-05	9232
bin	4.10112e-05	8927
bin	4.18656e-05	8599
bin	4.272e-05	8201
bin	4.35744e-05	7978
bin	4.44288e-05	7939
bin	4.52832e-05	7623
bin	4.61376e-05	7547
bin	4.6992e-05	7528
bin	4.78464e-05	7296
bin	4.87008e-05	7244
bin	4.95552e-05	7212
bin	5.04096e-05	7112
bin	5.1264e-05	6802
bin	5.21184e-05	6462
bin	5.29728e-05	6175
bin	5.38272e-05	5854
bin	5.46816e-05	5559
bin	5.5536e-05	5417
bin	5.63904e-05	5173
bin	5.72448e-05	4806
bin	5.80992e-05	4659
bin	5.89536e-05	4485
bin	5.9808e-05	4267
bin	6.06624e-05	4172
bin	6.15168e-05	4039
bin	6.23712e-05	3911
bin	6.32256e-05	3756
bin	6.408e-05	3790
bin	6.49344e-05	3686
bin	6.57888e-05	3490
bin	6.66432e-05	3600
bin	6.74976e-05	3472
bin	6.8352e-05	3429
bin	6.92064e-05	3448
bin	7.00608e-05	3409
bin	7.09152e-05	3427
bin	7.17696e-05	3471
bin	7.2624e-05	3346
bin	7.34784e-05	3345
bin	7.43328e-05	3326
bin	7.51872e-05	3395
bin	7.60416e-05	3250
bin	7.6896e-05	3304
bin	7.77504e-05	3173
bin	7.86048e-05	3148
bin	7.94592e-05	3005
bin	8.03136e-05	3036
bin	8.1168e-05	2836
bin	8.20224e-05	2799
bin	8.28768e-05	2656
bin	8.37312e-05	2678
bin	8.45856e-05	2600
bin	8.544e-05	2631
bin	8.62944e-05	2552
bin	8.71488e-05	2520
bin	8.80032e-05	2508
bin	8.88576e-05	2527
bin	8.9712e-05	2420
bin	9.05664e-05	2397
bin	9.14208e-05	2379
bin	9.22752e-05	2333
bin	9.31296e-05	2359
bin	9.3984e-05	2400
bin	9.48384e-05	2276
bin	9.56928e-05	2287
bin	9.65472e-05	2278
bin	9.74016e-05	2331
bin	9.8256e-05	2384
bin	9.91104e-05	2454
bin	9.99648e-05	2381
bin	0.0001008192	2338
bin	0.0001016736	2367
bin	0.000102528	2343
bin	0.0001033824	2329
bin	0.0001042368	2293
bin	0.0001050912	2251
bin	0.0001059456	2253
bin	0.0001068	2178
bin	0.0001076544	2059
bin	0.0001085088	2057
bin	0.0001093632	2025
bin	0.0001102176	2048
bin	0.000111072	2009
bin	0.0001119264	1984
bin	0.0001127808	1925
bin	0.0001136352	1963
bin	0.0001144896	1942
bin	0.000115344	1876
bin	0.0001161984	1925
bin	0.0001170528	1968
bin	0.0001179072	1876
bin	0.0001187616	1902
bin	0.000119616	1880
bin	0.0001204704	1903
bin	0.0001213248	1928
bin	0.0001221792	1879
bin	0.0001230336	1785
bin	0.000123888	1816
bin	0.0001247424	1890
bin	0.0001255968	1866
bin	0.0001264512	1804
bin	0.0001273056	1804
bin	0.00012816	1795
bin	0.0001290144	1776
bin	0.0001298688	1802
bin	0.0001307232	1718
bin	0.0001315776	1740
bin	0.000132432	1727
bin	0.0001332864	1693
bin	0.0001341408	1702
bin	0.0001349952	1645
bin	0.0001358496	1644
bin	0.000136704	1645
bin	0.0001375584	1644
bin	0.0001384128	1690
bin	0.0001392672	1727
bin	0.0001401216	1650
bin	0.000140976	1666
bin	0.0001418304	1575
bin	0.0001426848	1552
bin	0.0001435392	1554
bin	0.0001443936	1550
bin	0.000145248	1575
bin	0.0001461024	1563
bin	0.0001469568	1674
bin	0.0001478112	1551
bin	0.0001486656	1575
bin	0.00014952	1591
bin	0.0001503744	1581
bin	0.0001512288	1625
bin	0.0001520832	1618
bin	0.0001529376	1660
bin	0.000153792	1575
bin	0.0001546464	1504
bin	0.0001555008	1559
bin	0.0001563552	1508
bin	0.0001572096	1472
bin	0.000158064	1473
bin	0.0001589184	1407
bin	0.0001597728	1448
bin	0.0001606272	1414
bin	0.0001614816	1370
bin	0.000162336	1353
bin	0.0001631904	1402
bin	0.0001640448	1452
bin	0.0001648992	1454
bin	0.0001657536	1438
bin	0.000166608	1415
bin	0.0001674624	1427
bin	0.0001683168	1477
bin	0.0001691712	1455
bin	0.0001700256	1529
bin	0.00017088	1488
bin	0.0001717344	1498
bin	0.0001725888	1428
bin	0.0001734432	1408
bin	0.0001742976	1404
bin	0.000175152	1343
bin	0.0001760064	1420
bin	0.0001768608	1411
bin	0.0001777152	1421
bin	0.0001785696	1395
bin	0.000179424	1395
bin	0.0001802784	1371
bin	0.0001811328	1308
bin	0.0001819872	1314
bin	0.0001828416	1294
bin	0.000183696	1325
bin	0.0001845504	1284
bin	0.0001854048	1320
bin	0.0001862592	1328
bin	0.0001871136	1311
bin	0.000187968	1331
bin	0.0001888224	1252
bin	0.0001896768	1273
bin	0.0001905312	1269
bin	0.0001913856	1287
bin	0.00019224	1255
bin	0.0001930944	1280
bin	0.0001939488	1307
bin	0.0001948032	1251
bin	0.0001956576	1230
bin	0.000196512	1267
bin	0.0001973664	1290
bin	0.0001982208	1306
bin	0.0001990752	1338
bin	0.0001999296	1276
bin	0.000200784	1278
bin	0.0002016384	1239
bin	0.0002024928	1214
bin	0.0002033472	1246
bin	0.0002042016	1226
bin	0.000205056	1149
bin	0.0002059104	1176
bin	0.0002067648	1193
bin	0.0002076192	1222
bin	0.0002084736	1200
bin	0.000209328	1141
bin	0.0002101824	1146
bin	0.0002110368	1130
bin	0.0002118912	1074
bin	0.0002127456	1104
bin	0.0002136	1096
bin	0.0002144544	1126
bin	0.0002153088	1118
bin	0.0002161632	1154
bin	0.0002170176	1222
bin	0.000217872	1190
bin	0.0002187264	1126
bin	0.0002195808	1162
bin	0.0002204352	1222
bin	0.0002212896	1231
bin	0.000222144	1208
bin	0.0002229984	1201
bin	0.0002238528	1219
bin	0.0002247072	1212
bin	0.0002255616	1243
bin	0.000226416	1222
bin	0.0002272704	1154
bin	0.0002281248	1203
bin	0.0002289792	1159
bin	0.0002298336	1192
bin	0.000230688	1156
bin	0.0002315424	1130
bin	0.0002323968	1175
bin	0.0002332512	1169
bin	0.0002341056	1203
bin	0.00023496	1172
bin	0.0002358144	1181
bin	0.0002366688	1164
bin	0.0002375232	1141
bin	0.0002383776	1130
bin	0.000239232	1160
bin	0.0002400864	1173
bin	0.0002409408	1197
bin	0.0002417952	1150
bin	0.0002426496	1162
bin	0.000243504	1197
bin	0.0002443584	1160
bin	0.0002452128	1156
bin	0.0002460672	1145
bin	0.0002469216	1088
bin	0.000247776	1141
bin	0.0002486304	1115
bin	0.0002494848	1097
bin	0.0002503392	1163
bin	0.0002511936	1107
bin	0.000252048	1141
bin	0.0002529024	1161
bin	0.0002537568	1195
bin	0.0002546112	1156
bin	0.0002554656	1203
bin	0.00025632	1186
bin	0.0002571744	1174
bin	0.0002580288	1187
bin	0.0002588832	1178
bin	0.0002597376	1207
bin	0.000260592	1188
bin	0.0002614464	1167
bin	0.0002623008	1201
bin	0.0002631552	1141
bin	0.0002640096	1148
bin	0.000264864	1170
bin	0.0002657184	1199
bin	0.0002665728	1179
bin	0.0002674272	1154
bin	0.0002682816	1197
bin	0.000269136	1193
bin	0.0002699904	1114
bin	0.0002708448	1164
bin	0.0002716992	1206
bin	0.0002725536	1189
bin	0.000273408	1162
bin	0.0002742624	1201
bin	0.0002751168	1147
bin	0.0002759712	1175
bin	0.0002768256	1151
bin	0.00027768	1138
bin	0.0002785344	1134
bin	0.0002793888	1185
bin	0.0002802432	1118
bin	0.0002810976	1122
bin	0.000281952	1144
bin	0.0002828064	1135
bin	0.0002836608	1112
bin	0.0002845152	1089
bin	0.0002853696	1124
bin	0.000286224	1143
bin	0.0002870784	1175
bin	0.0002879328	1216
bin	0.0002887872	1160
bin	0.0002896416	1138
bin	0.000290496	1112
bin	0.0002913504	1122
bin	0.0002922048	1175
bin	0.0002930592	1192
bin	0.0002939136	1201
bin	0.000294768	1224
bin	0.0002956224	1180
bin	0.0002964768	1169
bin	0.0002973312	1181
bin	0.0002981856	1191
bin	0.00029904	1139
bin	0.0002998944	1147
bin	0.0003007488	1086
bin	0.0003016032	1077
bin	0.0003024576	1098
bin	0.000303312	1082
bin	0.0003041664	1044
bin	0.0003050208	1104
bin	0.0003058752	1075
bin	0.0003067296	1071
bin	0.000307584	1054
bin	0.0003084384	1088
bin	0.0003092928	1010
bin	0.0003101472	1015
bin	0.0003110016	1034
bin	0.000311856	1042
bin	0.0003127104	1029
bin	0.0003135648	1053
bin	0.0003144192	1065
bin	0.0003152736	1082
bin	0.000316128	1116
bin	0.0003169824	1122
bin	0.0003178368	1069
bin	0.0003186912	1056
bin	0.0003195456	1067
bin	0.0003204	1087
bin	0.0003212544	1142
bin	0.0003221088	1165
bin	0.0003229632	1093
bin	0.0003238176	1169
bin	0.000324672	1095
bin	0.0003255264	1113
bin	0.0003263808	1081
bin	0.0003272352	1048
bin	0.0003280896	1034
bin	0.000328944	1073
bin	0.0003297984	1038
bin	0.0003306528	1091
bin	0.0003315072	1074
bin	0.0003323616	1103
bin	0.000333216	1106
bin	0.0003340704	1080
bin	0.0003349248	1137
bin	0.0003357792	1059
bin	0.0003366336	1084
bin	0.000337488	1023
bin	0.0003383424	1050
bin	0.0003391968	1061
bin	0.0003400512	1042
bin	0.0003409056	1053
bin	0.00034176	1075
bin	0.0003426144	1104
bin	0.0003434688	1079
bin	0.0003443232	1142
bin	0.0003451776	1114
bin	0.000346032	1129
bin	0.0003468864	1096
bin	0.0003477408	1143
bin	0.0003485952	1130
bin	0.0003494496	1122
bin	0.000350304	1161
bin	0.0003511584	1101
bin	0.0003520128	1113
bin	0.0003528672	1110
bin	0.0003537216	1091
bin	0.000354576	1092
bin	0.0003554304	1084
bin	0.0003562848	1138
bin	0.0003571392	1068
bin	0.0003579936	1066
bin	0.000358848	1105
bin	0.0003597024	1084
bin	0.0003605568	1049
bin	0.0003614112	1084
bin	0.0003622656	1080
bin	0.00036312	1085
bin	0.0003639744	1099
bin	0.0003648288	1089
bin	0.0003656832	1117
bin	0.0003665376	1112
bin	0.000367392	1100
bin	0.0003682464	1014
bin	0.0003691008	1028
bin	0.0003699552	1027
bin	0.0003708096	1041
bin	0.000371664	1090
bin	0.0003725184	1041
bin	0.0003733728	1068
bin	0.0003742272	1066
bin	0.0003750816	1075
bin	0.000375936	1065
bin	0.0003767904	1077
bin	0.0003776448	1051
bin	0.0003784992	1067
bin	0.0003793536	1034
bin	0.000380208	1039
bin	0.0003810624	1024
bin	0.0003819168	1035
bin	0.0003827712	1048
bin	0.0003836256	1017
bin	0.00038448	1001
bin	0.0003853344	992
bin	0.0003861888	988
bin	0.0003870432	975
bin	0.0003878976	1002
bin	0.000388752	992
bin	0.0003896064	1058
bin	0.0003904608	1007
bin	0.0003913152	1032
bin	0.0003921696	1028
bin	0.000393024	1030
bin	0.0003938784	1050
bin	0.0003947328	1044
bin	0.0003955872	1068
bin	0.0003964416	1060
bin	0.000397296	1032
bin	0.0003981504	1064
bin	0.0003990048	1060
bin	0.0003998592	1019
bin	0.0004007136	972
bin	0.000401568	997
bin	0.0004024224	974
bin	0.0004032768	1012
bin	0.0004041312	1010
bin	0.0004049856	1035
bin	0.00040584	1013
bin	0.0004066944	1064
bin	0.0004075488	1061
bin	0.0004084032	1008
bin	0.0004092576	1060
bin	0.000410112	1005
bin	0.0004109664	1046
bin	0.0004118208	1057
bin	0.0004126752	1073
bin	0.0004135296	1110
bin	0.000414384	1094
bin	0.0004152384	1047
bin	0.0004160928	1082
bin	0.0004169472	1044
bin	0.0004178016	1042
bin	0.000418656	1073
bin	0.0004195104	1083
bin	0.0004203648	1044
bin	0.0004212192	1115
bin	0.0004220736	1069
bin	0.000422928	1053
bin	0.0004237824	1116
bin	0.0004246368	1097
bin	0.0004254912	1118
bin	0.0004263456	1064
bin	0.0004272	4665687
