version 2
run Permutation-35-20120710-22:24:21-28113
attr alg 3
attr buf 8
attr configname Permutation
attr datetime 20120710-22:24:21
attr delta 0.8
attr experiment Permutation
attr ext true
attr inifile altro.ini
attr iterationvars "$buf=8, $ext=true, $ofedge=2, $delta=0.8, $alg=3"
attr iterationvars2 "$buf=8, $ext=true, $ofedge=2, $delta=0.8, $alg=3, $repetition=0"
attr measurement "$buf=8, $ext=true, $ofedge=2, $delta=0.8, $alg=3"
attr network Torus3d_bub
attr ofedge 2
attr processid 28113
attr repetition 0
attr replication #0
attr resultdir altro-results
attr runnumber 35
attr seedset 35

scalar . 	alg 	3
scalar . 	buf 	8
scalar . 	delta 	0.8
scalar . 	ofedge 	2
scalar Torus3d_bub.timer 	#endTime 	0.001032159665514
scalar Torus3d_bub.timer 	#totalHops 	78580702
scalar Torus3d_bub.timer 	#totalPacks 	6291456
scalar Torus3d_bub.timer 	#totalDerouted 	775721
scalar Torus3d_bub.timer 	#totalOutFlanked 	312228
scalar Torus3d_bub.timer 	#totalCQRed 	463493
scalar Torus3d_bub.timer 	#LB 	0.000786432
scalar Torus3d_bub.timer 	#ratio 	0.76192863011012
statistic Torus3d_bub.timer 	"Hop Times"
field count 6291456
field mean 1.8606833771409e-06
field stddev 8.5649030072733e-07
field sum 11.706407597213
field sqrsum 2.6397176120379e-05
field min 3.98481422e-07
field max 0.000248736499999
bin	-INF	0
bin	0	0
bin	7.12e-08	0
bin	1.424e-07	0
bin	2.136e-07	0
bin	2.848e-07	0
bin	3.56e-07	390
bin	4.272e-07	10256
bin	4.984e-07	28320
bin	5.696e-07	46713
bin	6.408e-07	68273
bin	7.12e-07	87906
bin	7.832e-07	103509
bin	8.544e-07	114061
bin	9.256e-07	123534
bin	9.968e-07	130012
bin	1.068e-06	140267
bin	1.1392e-06	155449
bin	1.2104e-06	178203
bin	1.2816e-06	209060
bin	1.3528e-06	243724
bin	1.424e-06	274829
bin	1.4952e-06	301373
bin	1.5664e-06	319149
bin	1.6376e-06	327073
bin	1.7088e-06	326433
bin	1.78e-06	318408
bin	1.8512e-06	302480
bin	1.9224e-06	282219
bin	1.9936e-06	259740
bin	2.0648e-06	234079
bin	2.136e-06	208644
bin	2.2072e-06	184620
bin	2.2784e-06	162242
bin	2.3496e-06	142266
bin	2.4208e-06	123268
bin	2.492e-06	107355
bin	2.5632e-06	92968
bin	2.6344e-06	80002
bin	2.7056e-06	69772
bin	2.7768e-06	60823
bin	2.848e-06	53425
bin	2.9192e-06	46298
bin	2.9904e-06	40413
bin	3.0616e-06	35636
bin	3.1328e-06	31005
bin	3.204e-06	27288
bin	3.2752e-06	24036
bin	3.3464e-06	21155
bin	3.4176e-06	18578
bin	3.4888e-06	16363
bin	3.56e-06	14540
bin	3.6312e-06	12820
bin	3.7024e-06	11227
bin	3.7736e-06	10169
bin	3.8448e-06	8959
bin	3.916e-06	8174
bin	3.9872e-06	6965
bin	4.0584e-06	6406
bin	4.1296e-06	5763
bin	4.2008e-06	5073
bin	4.272e-06	4687
bin	4.3432e-06	4428
bin	4.4144e-06	3864
bin	4.4856e-06	3407
bin	4.5568e-06	3181
bin	4.628e-06	2867
bin	4.6992e-06	2693
bin	4.7704e-06	2480
bin	4.8416e-06	2304
bin	4.9128e-06	2184
bin	4.984e-06	1772
bin	5.0552e-06	1802
bin	5.1264e-06	1682
bin	5.1976e-06	1616
bin	5.2688e-06	1332
bin	5.34e-06	1386
bin	5.4112e-06	1251
bin	5.4824e-06	1166
bin	5.5536e-06	1038
bin	5.6248e-06	1087
bin	5.696e-06	1036
bin	5.7672e-06	839
bin	5.8384e-06	910
bin	5.9096e-06	908
bin	5.9808e-06	864
bin	6.052e-06	689
bin	6.1232e-06	799
bin	6.1944e-06	680
bin	6.2656e-06	639
bin	6.3368e-06	633
bin	6.408e-06	638
bin	6.4792e-06	515
bin	6.5504e-06	457
bin	6.6216e-06	494
bin	6.6928e-06	468
bin	6.764e-06	466
bin	6.8352e-06	353
bin	6.9064e-06	447
bin	6.9776e-06	398
bin	7.0488e-06	360
bin	7.12e-06	334
bin	7.1912e-06	367
bin	7.2624e-06	277
bin	7.3336e-06	227
bin	7.4048e-06	274
bin	7.476e-06	318
bin	7.5472e-06	240
bin	7.6184e-06	210
bin	7.6896e-06	240
bin	7.7608e-06	242
bin	7.832e-06	225
bin	7.9032e-06	168
bin	7.9744e-06	251
bin	8.0456e-06	165
bin	8.1168e-06	154
bin	8.188e-06	169
bin	8.2592e-06	260
bin	8.3304e-06	155
bin	8.4016e-06	140
bin	8.4728e-06	158
bin	8.544e-06	170
bin	8.6152e-06	109
bin	8.6864e-06	124
bin	8.7576e-06	179
bin	8.8288e-06	112
bin	8.9e-06	102
bin	8.9712e-06	127
bin	9.0424e-06	159
bin	9.1136e-06	88
bin	9.1848e-06	100
bin	9.256e-06	129
bin	9.3272e-06	122
bin	9.3984e-06	94
bin	9.4696e-06	89
bin	9.5408e-06	152
bin	9.612e-06	81
bin	9.6832e-06	76
bin	9.7544e-06	68
bin	9.8256e-06	127
bin	9.8968e-06	62
bin	9.968e-06	70
bin	1.00392e-05	93
bin	1.01104e-05	100
bin	1.01816e-05	61
bin	1.02528e-05	58
bin	1.0324e-05	97
bin	1.03952e-05	63
bin	1.04664e-05	70
bin	1.05376e-05	66
bin	1.06088e-05	112
bin	1.068e-05	59
bin	1.07512e-05	50
bin	1.08224e-05	51
bin	1.08936e-05	69
bin	1.09648e-05	57
bin	1.1036e-05	46
bin	1.11072e-05	78
bin	1.11784e-05	47
bin	1.12496e-05	36
bin	1.13208e-05	62
bin	1.1392e-05	76
bin	1.14632e-05	42
bin	1.15344e-05	37
bin	1.16056e-05	66
bin	1.16768e-05	51
bin	1.1748e-05	36
bin	1.18192e-05	34
bin	1.18904e-05	85
bin	1.19616e-05	33
bin	1.20328e-05	36
bin	1.2104e-05	29
bin	1.21752e-05	81
bin	1.22464e-05	24
bin	1.23176e-05	20
bin	1.23888e-05	40
bin	1.246e-05	42
bin	1.25312e-05	28
bin	1.26024e-05	30
bin	1.26736e-05	65
bin	1.27448e-05	34
bin	1.2816e-05	24
bin	1.28872e-05	33
bin	1.29584e-05	40
bin	1.30296e-05	23
bin	1.31008e-05	22
bin	1.3172e-05	29
bin	1.32432e-05	35
bin	1.33144e-05	26
bin	1.33856e-05	18
bin	1.34568e-05	35
bin	1.3528e-05	30
bin	1.35992e-05	15
bin	1.36704e-05	27
bin	1.37416e-05	35
bin	1.38128e-05	19
bin	1.3884e-05	17
bin	1.39552e-05	25
bin	1.40264e-05	31
bin	1.40976e-05	20
bin	1.41688e-05	22
bin	1.424e-05	24
bin	1.43112e-05	13
bin	1.43824e-05	8
bin	1.44536e-05	20
bin	1.45248e-05	21
bin	1.4596e-05	15
bin	1.46672e-05	7
bin	1.47384e-05	15
bin	1.48096e-05	15
bin	1.48808e-05	12
bin	1.4952e-05	11
bin	1.50232e-05	16
bin	1.50944e-05	11
bin	1.51656e-05	16
bin	1.52368e-05	14
bin	1.5308e-05	11
bin	1.53792e-05	17
bin	1.54504e-05	13
bin	1.55216e-05	15
bin	1.55928e-05	16
bin	1.5664e-05	11
bin	1.57352e-05	14
bin	1.58064e-05	21
bin	1.58776e-05	14
bin	1.59488e-05	10
bin	1.602e-05	12
bin	1.60912e-05	17
bin	1.61624e-05	9
bin	1.62336e-05	10
bin	1.63048e-05	11
bin	1.6376e-05	11
bin	1.64472e-05	8
bin	1.65184e-05	8
bin	1.65896e-05	5
bin	1.66608e-05	7
bin	1.6732e-05	9
bin	1.68032e-05	5
bin	1.68744e-05	13
bin	1.69456e-05	11
bin	1.70168e-05	8
bin	1.7088e-05	9
bin	1.71592e-05	13
bin	1.72304e-05	5
bin	1.73016e-05	10
bin	1.73728e-05	12
bin	1.7444e-05	9
bin	1.75152e-05	13
bin	1.75864e-05	10
bin	1.76576e-05	12
bin	1.77288e-05	4
bin	1.78e-05	14
bin	1.78712e-05	5
bin	1.79424e-05	7
bin	1.80136e-05	8
bin	1.80848e-05	7
bin	1.8156e-05	7
bin	1.82272e-05	5
bin	1.82984e-05	4
bin	1.83696e-05	6
bin	1.84408e-05	6
bin	1.8512e-05	3
bin	1.85832e-05	7
bin	1.86544e-05	5
bin	1.87256e-05	6
bin	1.87968e-05	4
bin	1.8868e-05	6
bin	1.89392e-05	5
bin	1.90104e-05	7
bin	1.90816e-05	5
bin	1.91528e-05	4
bin	1.9224e-05	5
bin	1.92952e-05	3
bin	1.93664e-05	5
bin	1.94376e-05	13
bin	1.95088e-05	4
bin	1.958e-05	9
bin	1.96512e-05	6
bin	1.97224e-05	2
bin	1.97936e-05	3
bin	1.98648e-05	3
bin	1.9936e-05	2
bin	2.00072e-05	5
bin	2.00784e-05	0
bin	2.01496e-05	4
bin	2.02208e-05	4
bin	2.0292e-05	4
bin	2.03632e-05	5
bin	2.04344e-05	1
bin	2.05056e-05	5
bin	2.05768e-05	7
bin	2.0648e-05	5
bin	2.07192e-05	8
bin	2.07904e-05	5
bin	2.08616e-05	4
bin	2.09328e-05	4
bin	2.1004e-05	13
bin	2.10752e-05	3
bin	2.11464e-05	4
bin	2.12176e-05	4
bin	2.12888e-05	6
bin	2.136e-05	5
bin	2.14312e-05	6
bin	2.15024e-05	5
bin	2.15736e-05	3
bin	2.16448e-05	5
bin	2.1716e-05	6
bin	2.17872e-05	13
bin	2.18584e-05	2
bin	2.19296e-05	4
bin	2.20008e-05	5
bin	2.2072e-05	1
bin	2.21432e-05	7
bin	2.22144e-05	2
bin	2.22856e-05	2
bin	2.23568e-05	7
bin	2.2428e-05	7
bin	2.24992e-05	8
bin	2.25704e-05	2
bin	2.26416e-05	1
bin	2.27128e-05	1
bin	2.2784e-05	6
bin	2.28552e-05	5
bin	2.29264e-05	4
bin	2.29976e-05	3
bin	2.30688e-05	3
bin	2.314e-05	4
bin	2.32112e-05	5
bin	2.32824e-05	3
bin	2.33536e-05	6
bin	2.34248e-05	2
bin	2.3496e-05	1
bin	2.35672e-05	5
bin	2.36384e-05	1
bin	2.37096e-05	2
bin	2.37808e-05	0
bin	2.3852e-05	3
bin	2.39232e-05	1
bin	2.39944e-05	4
bin	2.40656e-05	3
bin	2.41368e-05	6
bin	2.4208e-05	3
bin	2.42792e-05	1
bin	2.43504e-05	4
bin	2.44216e-05	3
bin	2.44928e-05	0
bin	2.4564e-05	3
bin	2.46352e-05	4
bin	2.47064e-05	2
bin	2.47776e-05	3
bin	2.48488e-05	1
bin	2.492e-05	2
bin	2.49912e-05	1
bin	2.50624e-05	5
bin	2.51336e-05	3
bin	2.52048e-05	0
bin	2.5276e-05	2
bin	2.53472e-05	2
bin	2.54184e-05	4
bin	2.54896e-05	3
bin	2.55608e-05	3
bin	2.5632e-05	3
bin	2.57032e-05	5
bin	2.57744e-05	5
bin	2.58456e-05	1
bin	2.59168e-05	2
bin	2.5988e-05	1
bin	2.60592e-05	2
bin	2.61304e-05	0
bin	2.62016e-05	2
bin	2.62728e-05	3
bin	2.6344e-05	3
bin	2.64152e-05	2
bin	2.64864e-05	2
bin	2.65576e-05	1
bin	2.66288e-05	3
bin	2.67e-05	1
bin	2.67712e-05	0
bin	2.68424e-05	1
bin	2.69136e-05	1
bin	2.69848e-05	1
bin	2.7056e-05	1
bin	2.71272e-05	0
bin	2.71984e-05	1
bin	2.72696e-05	0
bin	2.73408e-05	1
bin	2.7412e-05	2
bin	2.74832e-05	2
bin	2.75544e-05	4
bin	2.76256e-05	0
bin	2.76968e-05	1
bin	2.7768e-05	3
bin	2.78392e-05	1
bin	2.79104e-05	1
bin	2.79816e-05	3
bin	2.80528e-05	1
bin	2.8124e-05	0
bin	2.81952e-05	2
bin	2.82664e-05	0
bin	2.83376e-05	0
bin	2.84088e-05	3
bin	2.848e-05	1
bin	2.85512e-05	1
bin	2.86224e-05	2
bin	2.86936e-05	1
bin	2.87648e-05	0
bin	2.8836e-05	1
bin	2.89072e-05	1
bin	2.89784e-05	2
bin	2.90496e-05	4
bin	2.91208e-05	5
bin	2.9192e-05	2
bin	2.92632e-05	0
bin	2.93344e-05	0
bin	2.94056e-05	1
bin	2.94768e-05	0
bin	2.9548e-05	0
bin	2.96192e-05	1
bin	2.96904e-05	1
bin	2.97616e-05	1
bin	2.98328e-05	0
bin	2.9904e-05	2
bin	2.99752e-05	0
bin	3.00464e-05	3
bin	3.01176e-05	1
bin	3.01888e-05	0
bin	3.026e-05	0
bin	3.03312e-05	0
bin	3.04024e-05	0
bin	3.04736e-05	0
bin	3.05448e-05	0
bin	3.0616e-05	0
bin	3.06872e-05	0
bin	3.07584e-05	1
bin	3.08296e-05	0
bin	3.09008e-05	1
bin	3.0972e-05	3
bin	3.10432e-05	1
bin	3.11144e-05	1
bin	3.11856e-05	0
bin	3.12568e-05	1
bin	3.1328e-05	0
bin	3.13992e-05	4
bin	3.14704e-05	2
bin	3.15416e-05	3
bin	3.16128e-05	0
bin	3.1684e-05	1
bin	3.17552e-05	1
bin	3.18264e-05	0
bin	3.18976e-05	2
bin	3.19688e-05	3
bin	3.204e-05	1
bin	3.21112e-05	1
bin	3.21824e-05	2
bin	3.22536e-05	2
bin	3.23248e-05	2
bin	3.2396e-05	1
bin	3.24672e-05	1
bin	3.25384e-05	0
bin	3.26096e-05	0
bin	3.26808e-05	0
bin	3.2752e-05	1
bin	3.28232e-05	2
bin	3.28944e-05	0
bin	3.29656e-05	0
bin	3.30368e-05	0
bin	3.3108e-05	0
bin	3.31792e-05	1
bin	3.32504e-05	0
bin	3.33216e-05	1
bin	3.33928e-05	0
bin	3.3464e-05	0
bin	3.35352e-05	1
bin	3.36064e-05	0
bin	3.36776e-05	1
bin	3.37488e-05	0
bin	3.382e-05	0
bin	3.38912e-05	1
bin	3.39624e-05	1
bin	3.40336e-05	1
bin	3.41048e-05	0
bin	3.4176e-05	0
bin	3.42472e-05	0
bin	3.43184e-05	0
bin	3.43896e-05	0
bin	3.44608e-05	0
bin	3.4532e-05	0
bin	3.46032e-05	0
bin	3.46744e-05	0
bin	3.47456e-05	0
bin	3.48168e-05	1
bin	3.4888e-05	1
bin	3.49592e-05	1
bin	3.50304e-05	0
bin	3.51016e-05	0
bin	3.51728e-05	0
bin	3.5244e-05	0
bin	3.53152e-05	0
bin	3.53864e-05	1
bin	3.54576e-05	2
bin	3.55288e-05	0
bin	3.56e-05	98
statistic Torus3d_bub.timer 	"Life Times"
field count 6291456
field mean 2.2056542452598e-05
field stddev 9.0775260548147e-06
field sum 138.76776635265
field sqrsum 0.0035791623284068
field min 7.33331845e-07
field max 0.00101280333213
bin	-INF	0
bin	0	118
bin	8.544e-07	3208
bin	1.7088e-06	10324
bin	2.5632e-06	21433
bin	3.4176e-06	32937
bin	4.272e-06	43125
bin	5.1264e-06	52294
bin	5.9808e-06	60587
bin	6.8352e-06	70206
bin	7.6896e-06	79770
bin	8.544e-06	90207
bin	9.3984e-06	102107
bin	1.02528e-05	111712
bin	1.11072e-05	113487
bin	1.19616e-05	119464
bin	1.2816e-05	127660
bin	1.36704e-05	134144
bin	1.45248e-05	143118
bin	1.53792e-05	151090
bin	1.62336e-05	161426
bin	1.7088e-05	172755
bin	1.79424e-05	184112
bin	1.87968e-05	198114
bin	1.96512e-05	210867
bin	2.05056e-05	228067
bin	2.136e-05	245573
bin	2.22144e-05	266166
bin	2.30688e-05	284523
bin	2.39232e-05	303638
bin	2.47776e-05	319106
bin	2.5632e-05	331513
bin	2.64864e-05	332694
bin	2.73408e-05	317579
bin	2.81952e-05	285052
bin	2.90496e-05	240885
bin	2.9904e-05	192358
bin	3.07584e-05	145371
bin	3.16128e-05	103019
bin	3.24672e-05	71456
bin	3.33216e-05	50380
bin	3.4176e-05	35642
bin	3.50304e-05	26045
bin	3.58848e-05	19202
bin	3.67392e-05	14550
bin	3.75936e-05	11187
bin	3.8448e-05	8777
bin	3.93024e-05	6963
bin	4.01568e-05	5788
bin	4.10112e-05	4685
bin	4.18656e-05	3703
bin	4.272e-05	3261
bin	4.35744e-05	2810
bin	4.44288e-05	2646
bin	4.52832e-05	2338
bin	4.61376e-05	2001
bin	4.6992e-05	1970
bin	4.78464e-05	1859
bin	4.87008e-05	1580
bin	4.95552e-05	1495
bin	5.04096e-05	1423
bin	5.1264e-05	1341
bin	5.21184e-05	1260
bin	5.29728e-05	1129
bin	5.38272e-05	1041
bin	5.46816e-05	948
bin	5.5536e-05	857
bin	5.63904e-05	782
bin	5.72448e-05	685
bin	5.80992e-05	630
bin	5.89536e-05	562
bin	5.9808e-05	523
bin	6.06624e-05	507
bin	6.15168e-05	474
bin	6.23712e-05	460
bin	6.32256e-05	467
bin	6.408e-05	396
bin	6.49344e-05	404
bin	6.57888e-05	367
bin	6.66432e-05	347
bin	6.74976e-05	294
bin	6.8352e-05	278
bin	6.92064e-05	293
bin	7.00608e-05	229
bin	7.09152e-05	213
bin	7.17696e-05	188
bin	7.2624e-05	151
bin	7.34784e-05	154
bin	7.43328e-05	141
bin	7.51872e-05	136
bin	7.60416e-05	140
bin	7.6896e-05	130
bin	7.77504e-05	103
bin	7.86048e-05	127
bin	7.94592e-05	123
bin	8.03136e-05	123
bin	8.1168e-05	157
bin	8.20224e-05	128
bin	8.28768e-05	129
bin	8.37312e-05	136
bin	8.45856e-05	117
bin	8.544e-05	115
bin	8.62944e-05	104
bin	8.71488e-05	98
bin	8.80032e-05	97
bin	8.88576e-05	104
bin	8.9712e-05	89
bin	9.05664e-05	82
bin	9.14208e-05	102
bin	9.22752e-05	75
bin	9.31296e-05	70
bin	9.3984e-05	70
bin	9.48384e-05	93
bin	9.56928e-05	101
bin	9.65472e-05	72
bin	9.74016e-05	71
bin	9.8256e-05	75
bin	9.91104e-05	74
bin	9.99648e-05	61
bin	0.0001008192	50
bin	0.0001016736	52
bin	0.000102528	47
bin	0.0001033824	49
bin	0.0001042368	36
bin	0.0001050912	46
bin	0.0001059456	40
bin	0.0001068	40
bin	0.0001076544	39
bin	0.0001085088	58
bin	0.0001093632	58
bin	0.0001102176	40
bin	0.000111072	46
bin	0.0001119264	42
bin	0.0001127808	45
bin	0.0001136352	46
bin	0.0001144896	40
bin	0.000115344	51
bin	0.0001161984	63
bin	0.0001170528	45
bin	0.0001179072	56
bin	0.0001187616	32
bin	0.000119616	45
bin	0.0001204704	47
bin	0.0001213248	42
bin	0.0001221792	38
bin	0.0001230336	32
bin	0.000123888	29
bin	0.0001247424	35
bin	0.0001255968	35
bin	0.0001264512	36
bin	0.0001273056	34
bin	0.00012816	29
bin	0.0001290144	35
bin	0.0001298688	32
bin	0.0001307232	35
bin	0.0001315776	25
bin	0.000132432	27
bin	0.0001332864	22
bin	0.0001341408	16
bin	0.0001349952	23
bin	0.0001358496	23
bin	0.000136704	22
bin	0.0001375584	19
bin	0.0001384128	14
bin	0.0001392672	20
bin	0.0001401216	18
bin	0.000140976	19
bin	0.0001418304	23
bin	0.0001426848	29
bin	0.0001435392	26
bin	0.0001443936	36
bin	0.000145248	33
bin	0.0001461024	35
bin	0.0001469568	34
bin	0.0001478112	30
bin	0.0001486656	25
bin	0.00014952	18
bin	0.0001503744	28
bin	0.0001512288	22
bin	0.0001520832	30
bin	0.0001529376	28
bin	0.000153792	27
bin	0.0001546464	23
bin	0.0001555008	31
bin	0.0001563552	19
bin	0.0001572096	27
bin	0.000158064	26
bin	0.0001589184	25
bin	0.0001597728	27
bin	0.0001606272	22
bin	0.0001614816	16
bin	0.000162336	15
bin	0.0001631904	15
bin	0.0001640448	14
bin	0.0001648992	13
bin	0.0001657536	15
bin	0.000166608	13
bin	0.0001674624	15
bin	0.0001683168	10
bin	0.0001691712	11
bin	0.0001700256	16
bin	0.00017088	16
bin	0.0001717344	18
bin	0.0001725888	19
bin	0.0001734432	22
bin	0.0001742976	14
bin	0.000175152	17
bin	0.0001760064	10
bin	0.0001768608	14
bin	0.0001777152	12
bin	0.0001785696	17
bin	0.000179424	15
bin	0.0001802784	20
bin	0.0001811328	13
bin	0.0001819872	16
bin	0.0001828416	17
bin	0.000183696	16
bin	0.0001845504	17
bin	0.0001854048	12
bin	0.0001862592	8
bin	0.0001871136	11
bin	0.000187968	12
bin	0.0001888224	13
bin	0.0001896768	12
bin	0.0001905312	13
bin	0.0001913856	5
bin	0.00019224	9
bin	0.0001930944	9
bin	0.0001939488	7
bin	0.0001948032	2
bin	0.0001956576	8
bin	0.000196512	2
bin	0.0001973664	1
bin	0.0001982208	4
bin	0.0001990752	5
bin	0.0001999296	9
bin	0.000200784	8
bin	0.0002016384	14
bin	0.0002024928	12
bin	0.0002033472	10
bin	0.0002042016	7
bin	0.000205056	6
bin	0.0002059104	13
bin	0.0002067648	12
bin	0.0002076192	8
bin	0.0002084736	5
bin	0.000209328	7
bin	0.0002101824	3
bin	0.0002110368	3
bin	0.0002118912	8
bin	0.0002127456	9
bin	0.0002136	10
bin	0.0002144544	5
bin	0.0002153088	9
bin	0.0002161632	6
bin	0.0002170176	10
bin	0.000217872	10
bin	0.0002187264	9
bin	0.0002195808	12
bin	0.0002204352	6
bin	0.0002212896	9
bin	0.000222144	5
bin	0.0002229984	5
bin	0.0002238528	3
bin	0.0002247072	6
bin	0.0002255616	5
bin	0.000226416	10
bin	0.0002272704	2
bin	0.0002281248	5
bin	0.0002289792	2
bin	0.0002298336	6
bin	0.000230688	2
bin	0.0002315424	7
bin	0.0002323968	11
bin	0.0002332512	7
bin	0.0002341056	4
bin	0.00023496	2
bin	0.0002358144	2
bin	0.0002366688	4
bin	0.0002375232	8
bin	0.0002383776	8
bin	0.000239232	6
bin	0.0002400864	5
bin	0.0002409408	5
bin	0.0002417952	6
bin	0.0002426496	2
bin	0.000243504	1
bin	0.0002443584	0
bin	0.0002452128	4
bin	0.0002460672	2
bin	0.0002469216	3
bin	0.000247776	3
bin	0.0002486304	5
bin	0.0002494848	5
bin	0.0002503392	3
bin	0.0002511936	4
bin	0.000252048	2
bin	0.0002529024	1
bin	0.0002537568	6
bin	0.0002546112	0
bin	0.0002554656	6
bin	0.00025632	4
bin	0.0002571744	2
bin	0.0002580288	3
bin	0.0002588832	1
bin	0.0002597376	2
bin	0.000260592	0
bin	0.0002614464	3
bin	0.0002623008	7
bin	0.0002631552	3
bin	0.0002640096	6
bin	0.000264864	0
bin	0.0002657184	3
bin	0.0002665728	3
bin	0.0002674272	5
bin	0.0002682816	6
bin	0.000269136	0
bin	0.0002699904	1
bin	0.0002708448	1
bin	0.0002716992	1
bin	0.0002725536	0
bin	0.000273408	2
bin	0.0002742624	4
bin	0.0002751168	4
bin	0.0002759712	5
bin	0.0002768256	3
bin	0.00027768	4
bin	0.0002785344	6
bin	0.0002793888	2
bin	0.0002802432	4
bin	0.0002810976	0
bin	0.000281952	0
bin	0.0002828064	1
bin	0.0002836608	1
bin	0.0002845152	0
bin	0.0002853696	2
bin	0.000286224	3
bin	0.0002870784	1
bin	0.0002879328	4
bin	0.0002887872	5
bin	0.0002896416	5
bin	0.000290496	5
bin	0.0002913504	6
bin	0.0002922048	5
bin	0.0002930592	6
bin	0.0002939136	3
bin	0.000294768	2
bin	0.0002956224	3
bin	0.0002964768	0
bin	0.0002973312	3
bin	0.0002981856	4
bin	0.00029904	2
bin	0.0002998944	1
bin	0.0003007488	4
bin	0.0003016032	1
bin	0.0003024576	1
bin	0.000303312	4
bin	0.0003041664	2
bin	0.0003050208	4
bin	0.0003058752	3
bin	0.0003067296	1
bin	0.000307584	1
bin	0.0003084384	1
bin	0.0003092928	1
bin	0.0003101472	0
bin	0.0003110016	2
bin	0.000311856	1
bin	0.0003127104	3
bin	0.0003135648	1
bin	0.0003144192	5
bin	0.0003152736	7
bin	0.000316128	0
bin	0.0003169824	0
bin	0.0003178368	0
bin	0.0003186912	0
bin	0.0003195456	3
bin	0.0003204	2
bin	0.0003212544	1
bin	0.0003221088	2
bin	0.0003229632	2
bin	0.0003238176	1
bin	0.000324672	2
bin	0.0003255264	0
bin	0.0003263808	0
bin	0.0003272352	0
bin	0.0003280896	0
bin	0.000328944	0
bin	0.0003297984	0
bin	0.0003306528	0
bin	0.0003315072	0
bin	0.0003323616	0
bin	0.000333216	1
bin	0.0003340704	1
bin	0.0003349248	0
bin	0.0003357792	2
bin	0.0003366336	0
bin	0.000337488	1
bin	0.0003383424	1
bin	0.0003391968	4
bin	0.0003400512	1
bin	0.0003409056	1
bin	0.00034176	0
bin	0.0003426144	0
bin	0.0003434688	0
bin	0.0003443232	0
bin	0.0003451776	0
bin	0.000346032	0
bin	0.0003468864	0
bin	0.0003477408	0
bin	0.0003485952	0
bin	0.0003494496	0
bin	0.000350304	0
bin	0.0003511584	0
bin	0.0003520128	0
bin	0.0003528672	0
bin	0.0003537216	1
bin	0.000354576	2
bin	0.0003554304	0
bin	0.0003562848	0
bin	0.0003571392	1
bin	0.0003579936	0
bin	0.000358848	0
bin	0.0003597024	0
bin	0.0003605568	0
bin	0.0003614112	0
bin	0.0003622656	0
bin	0.00036312	0
bin	0.0003639744	0
bin	0.0003648288	0
bin	0.0003656832	0
bin	0.0003665376	1
bin	0.000367392	0
bin	0.0003682464	0
bin	0.0003691008	2
bin	0.0003699552	1
bin	0.0003708096	0
bin	0.000371664	1
bin	0.0003725184	0
bin	0.0003733728	0
bin	0.0003742272	0
bin	0.0003750816	0
bin	0.000375936	0
bin	0.0003767904	0
bin	0.0003776448	1
bin	0.0003784992	0
bin	0.0003793536	0
bin	0.000380208	0
bin	0.0003810624	0
bin	0.0003819168	0
bin	0.0003827712	0
bin	0.0003836256	0
bin	0.00038448	0
bin	0.0003853344	0
bin	0.0003861888	0
bin	0.0003870432	0
bin	0.0003878976	0
bin	0.000388752	0
bin	0.0003896064	0
bin	0.0003904608	0
bin	0.0003913152	0
bin	0.0003921696	0
bin	0.000393024	0
bin	0.0003938784	0
bin	0.0003947328	0
bin	0.0003955872	0
bin	0.0003964416	0
bin	0.000397296	0
bin	0.0003981504	0
bin	0.0003990048	0
bin	0.0003998592	0
bin	0.0004007136	0
bin	0.000401568	0
bin	0.0004024224	0
bin	0.0004032768	0
bin	0.0004041312	0
bin	0.0004049856	0
bin	0.00040584	0
bin	0.0004066944	0
bin	0.0004075488	0
bin	0.0004084032	0
bin	0.0004092576	0
bin	0.000410112	0
bin	0.0004109664	0
bin	0.0004118208	0
bin	0.0004126752	0
bin	0.0004135296	0
bin	0.000414384	0
bin	0.0004152384	0
bin	0.0004160928	0
bin	0.0004169472	0
bin	0.0004178016	0
bin	0.000418656	0
bin	0.0004195104	0
bin	0.0004203648	0
bin	0.0004212192	0
bin	0.0004220736	0
bin	0.000422928	0
bin	0.0004237824	0
bin	0.0004246368	0
bin	0.0004254912	0
bin	0.0004263456	0
bin	0.0004272	90
