version 2
run Permutation-15-20120710-21:03:46-28074
attr alg 3
attr buf 8
attr configname Permutation
attr datetime 20120710-21:03:46
attr delta 0.8
attr experiment Permutation
attr ext true
attr inifile altro.ini
attr iterationvars "$buf=8, $ext=true, $ofedge=1, $delta=0.8, $alg=3"
attr iterationvars2 "$buf=8, $ext=true, $ofedge=1, $delta=0.8, $alg=3, $repetition=0"
attr measurement "$buf=8, $ext=true, $ofedge=1, $delta=0.8, $alg=3"
attr network Torus3d_bub
attr ofedge 1
attr processid 28074
attr repetition 0
attr replication #0
attr resultdir altro-results
attr runnumber 15
attr seedset 15

scalar . 	alg 	3
scalar . 	buf 	8
scalar . 	delta 	0.8
scalar . 	ofedge 	1
scalar Torus3d_bub.timer 	#endTime 	0.00112094633218
scalar Torus3d_bub.timer 	#totalHops 	78088484
scalar Torus3d_bub.timer 	#totalPacks 	6291456
scalar Torus3d_bub.timer 	#totalDerouted 	887319
scalar Torus3d_bub.timer 	#totalOutFlanked 	485044
scalar Torus3d_bub.timer 	#totalCQRed 	402275
scalar Torus3d_bub.timer 	#LB 	0.000786432
scalar Torus3d_bub.timer 	#ratio 	0.70157863710617
statistic Torus3d_bub.timer 	"Hop Times"
field count 6291456
field mean 1.9176250729383e-06
field stddev 1.1110040787833e-06
field sum 12.064653770888
field sqrsum 3.0901214614347e-05
field min 4.00518454e-07
field max 0.00029970155509
bin	-INF	0
bin	0	0
bin	7.12e-08	0
bin	1.424e-07	0
bin	2.136e-07	0
bin	2.848e-07	0
bin	3.56e-07	329
bin	4.272e-07	9362
bin	4.984e-07	26424
bin	5.696e-07	43874
bin	6.408e-07	64537
bin	7.12e-07	84001
bin	7.832e-07	99203
bin	8.544e-07	111356
bin	9.256e-07	120122
bin	9.968e-07	127144
bin	1.068e-06	136586
bin	1.1392e-06	150354
bin	1.2104e-06	169887
bin	1.2816e-06	196689
bin	1.3528e-06	229152
bin	1.424e-06	261038
bin	1.4952e-06	289044
bin	1.5664e-06	309950
bin	1.6376e-06	321582
bin	1.7088e-06	322881
bin	1.78e-06	315228
bin	1.8512e-06	300464
bin	1.9224e-06	282434
bin	1.9936e-06	260159
bin	2.0648e-06	236316
bin	2.136e-06	211468
bin	2.2072e-06	187649
bin	2.2784e-06	165135
bin	2.3496e-06	146322
bin	2.4208e-06	127621
bin	2.492e-06	111900
bin	2.5632e-06	97785
bin	2.6344e-06	85663
bin	2.7056e-06	74573
bin	2.7768e-06	65266
bin	2.848e-06	57129
bin	2.9192e-06	49711
bin	2.9904e-06	43814
bin	3.0616e-06	38562
bin	3.1328e-06	34264
bin	3.204e-06	30052
bin	3.2752e-06	26425
bin	3.3464e-06	23732
bin	3.4176e-06	21163
bin	3.4888e-06	18547
bin	3.56e-06	16766
bin	3.6312e-06	14847
bin	3.7024e-06	13075
bin	3.7736e-06	12000
bin	3.8448e-06	10602
bin	3.916e-06	9578
bin	3.9872e-06	8412
bin	4.0584e-06	7820
bin	4.1296e-06	7091
bin	4.2008e-06	6355
bin	4.272e-06	5901
bin	4.3432e-06	5358
bin	4.4144e-06	5114
bin	4.4856e-06	4418
bin	4.5568e-06	4194
bin	4.628e-06	3817
bin	4.6992e-06	3589
bin	4.7704e-06	3153
bin	4.8416e-06	3097
bin	4.9128e-06	2829
bin	4.984e-06	2485
bin	5.0552e-06	2520
bin	5.1264e-06	2247
bin	5.1976e-06	2229
bin	5.2688e-06	1808
bin	5.34e-06	1857
bin	5.4112e-06	1700
bin	5.4824e-06	1601
bin	5.5536e-06	1462
bin	5.6248e-06	1504
bin	5.696e-06	1277
bin	5.7672e-06	1124
bin	5.8384e-06	1190
bin	5.9096e-06	1193
bin	5.9808e-06	1108
bin	6.052e-06	970
bin	6.1232e-06	1018
bin	6.1944e-06	956
bin	6.2656e-06	919
bin	6.3368e-06	840
bin	6.408e-06	888
bin	6.4792e-06	787
bin	6.5504e-06	736
bin	6.6216e-06	717
bin	6.6928e-06	715
bin	6.764e-06	664
bin	6.8352e-06	557
bin	6.9064e-06	636
bin	6.9776e-06	574
bin	7.0488e-06	524
bin	7.12e-06	470
bin	7.1912e-06	564
bin	7.2624e-06	480
bin	7.3336e-06	394
bin	7.4048e-06	456
bin	7.476e-06	419
bin	7.5472e-06	374
bin	7.6184e-06	360
bin	7.6896e-06	418
bin	7.7608e-06	379
bin	7.832e-06	349
bin	7.9032e-06	346
bin	7.9744e-06	394
bin	8.0456e-06	332
bin	8.1168e-06	265
bin	8.188e-06	281
bin	8.2592e-06	356
bin	8.3304e-06	309
bin	8.4016e-06	235
bin	8.4728e-06	283
bin	8.544e-06	281
bin	8.6152e-06	231
bin	8.6864e-06	214
bin	8.7576e-06	302
bin	8.8288e-06	220
bin	8.9e-06	195
bin	8.9712e-06	222
bin	9.0424e-06	254
bin	9.1136e-06	202
bin	9.1848e-06	194
bin	9.256e-06	225
bin	9.3272e-06	238
bin	9.3984e-06	171
bin	9.4696e-06	184
bin	9.5408e-06	213
bin	9.612e-06	177
bin	9.6832e-06	147
bin	9.7544e-06	143
bin	9.8256e-06	179
bin	9.8968e-06	152
bin	9.968e-06	128
bin	1.00392e-05	139
bin	1.01104e-05	162
bin	1.01816e-05	131
bin	1.02528e-05	139
bin	1.0324e-05	183
bin	1.03952e-05	131
bin	1.04664e-05	110
bin	1.05376e-05	121
bin	1.06088e-05	162
bin	1.068e-05	140
bin	1.07512e-05	116
bin	1.08224e-05	135
bin	1.08936e-05	137
bin	1.09648e-05	121
bin	1.1036e-05	108
bin	1.11072e-05	149
bin	1.11784e-05	125
bin	1.12496e-05	94
bin	1.13208e-05	105
bin	1.1392e-05	133
bin	1.14632e-05	95
bin	1.15344e-05	92
bin	1.16056e-05	101
bin	1.16768e-05	96
bin	1.1748e-05	81
bin	1.18192e-05	85
bin	1.18904e-05	119
bin	1.19616e-05	94
bin	1.20328e-05	97
bin	1.2104e-05	84
bin	1.21752e-05	121
bin	1.22464e-05	84
bin	1.23176e-05	74
bin	1.23888e-05	87
bin	1.246e-05	93
bin	1.25312e-05	78
bin	1.26024e-05	83
bin	1.26736e-05	91
bin	1.27448e-05	75
bin	1.2816e-05	79
bin	1.28872e-05	91
bin	1.29584e-05	83
bin	1.30296e-05	72
bin	1.31008e-05	79
bin	1.3172e-05	73
bin	1.32432e-05	69
bin	1.33144e-05	58
bin	1.33856e-05	82
bin	1.34568e-05	80
bin	1.3528e-05	68
bin	1.35992e-05	70
bin	1.36704e-05	57
bin	1.37416e-05	58
bin	1.38128e-05	57
bin	1.3884e-05	55
bin	1.39552e-05	52
bin	1.40264e-05	59
bin	1.40976e-05	58
bin	1.41688e-05	42
bin	1.424e-05	55
bin	1.43112e-05	59
bin	1.43824e-05	57
bin	1.44536e-05	76
bin	1.45248e-05	66
bin	1.4596e-05	43
bin	1.46672e-05	44
bin	1.47384e-05	54
bin	1.48096e-05	52
bin	1.48808e-05	54
bin	1.4952e-05	46
bin	1.50232e-05	45
bin	1.50944e-05	43
bin	1.51656e-05	40
bin	1.52368e-05	38
bin	1.5308e-05	53
bin	1.53792e-05	38
bin	1.54504e-05	43
bin	1.55216e-05	41
bin	1.55928e-05	41
bin	1.5664e-05	48
bin	1.57352e-05	38
bin	1.58064e-05	38
bin	1.58776e-05	38
bin	1.59488e-05	17
bin	1.602e-05	28
bin	1.60912e-05	35
bin	1.61624e-05	28
bin	1.62336e-05	22
bin	1.63048e-05	30
bin	1.6376e-05	38
bin	1.64472e-05	25
bin	1.65184e-05	29
bin	1.65896e-05	35
bin	1.66608e-05	37
bin	1.6732e-05	32
bin	1.68032e-05	29
bin	1.68744e-05	41
bin	1.69456e-05	34
bin	1.70168e-05	49
bin	1.7088e-05	40
bin	1.71592e-05	32
bin	1.72304e-05	26
bin	1.73016e-05	34
bin	1.73728e-05	39
bin	1.7444e-05	26
bin	1.75152e-05	42
bin	1.75864e-05	29
bin	1.76576e-05	32
bin	1.77288e-05	24
bin	1.78e-05	25
bin	1.78712e-05	22
bin	1.79424e-05	37
bin	1.80136e-05	26
bin	1.80848e-05	27
bin	1.8156e-05	27
bin	1.82272e-05	24
bin	1.82984e-05	20
bin	1.83696e-05	21
bin	1.84408e-05	23
bin	1.8512e-05	33
bin	1.85832e-05	24
bin	1.86544e-05	29
bin	1.87256e-05	29
bin	1.87968e-05	22
bin	1.8868e-05	19
bin	1.89392e-05	22
bin	1.90104e-05	17
bin	1.90816e-05	19
bin	1.91528e-05	16
bin	1.9224e-05	29
bin	1.92952e-05	22
bin	1.93664e-05	20
bin	1.94376e-05	20
bin	1.95088e-05	11
bin	1.958e-05	17
bin	1.96512e-05	21
bin	1.97224e-05	12
bin	1.97936e-05	12
bin	1.98648e-05	15
bin	1.9936e-05	17
bin	2.00072e-05	6
bin	2.00784e-05	15
bin	2.01496e-05	16
bin	2.02208e-05	13
bin	2.0292e-05	8
bin	2.03632e-05	15
bin	2.04344e-05	10
bin	2.05056e-05	14
bin	2.05768e-05	10
bin	2.0648e-05	9
bin	2.07192e-05	17
bin	2.07904e-05	12
bin	2.08616e-05	18
bin	2.09328e-05	11
bin	2.1004e-05	23
bin	2.10752e-05	9
bin	2.11464e-05	7
bin	2.12176e-05	11
bin	2.12888e-05	8
bin	2.136e-05	11
bin	2.14312e-05	11
bin	2.15024e-05	13
bin	2.15736e-05	16
bin	2.16448e-05	11
bin	2.1716e-05	12
bin	2.17872e-05	15
bin	2.18584e-05	12
bin	2.19296e-05	14
bin	2.20008e-05	7
bin	2.2072e-05	19
bin	2.21432e-05	16
bin	2.22144e-05	17
bin	2.22856e-05	6
bin	2.23568e-05	8
bin	2.2428e-05	12
bin	2.24992e-05	13
bin	2.25704e-05	12
bin	2.26416e-05	4
bin	2.27128e-05	11
bin	2.2784e-05	10
bin	2.28552e-05	8
bin	2.29264e-05	5
bin	2.29976e-05	15
bin	2.30688e-05	13
bin	2.314e-05	6
bin	2.32112e-05	4
bin	2.32824e-05	10
bin	2.33536e-05	4
bin	2.34248e-05	10
bin	2.3496e-05	9
bin	2.35672e-05	17
bin	2.36384e-05	3
bin	2.37096e-05	3
bin	2.37808e-05	14
bin	2.3852e-05	14
bin	2.39232e-05	10
bin	2.39944e-05	7
bin	2.40656e-05	2
bin	2.41368e-05	10
bin	2.4208e-05	8
bin	2.42792e-05	10
bin	2.43504e-05	8
bin	2.44216e-05	4
bin	2.44928e-05	5
bin	2.4564e-05	3
bin	2.46352e-05	10
bin	2.47064e-05	4
bin	2.47776e-05	2
bin	2.48488e-05	3
bin	2.492e-05	4
bin	2.49912e-05	2
bin	2.50624e-05	11
bin	2.51336e-05	4
bin	2.52048e-05	5
bin	2.5276e-05	4
bin	2.53472e-05	6
bin	2.54184e-05	6
bin	2.54896e-05	6
bin	2.55608e-05	4
bin	2.5632e-05	5
bin	2.57032e-05	7
bin	2.57744e-05	8
bin	2.58456e-05	10
bin	2.59168e-05	3
bin	2.5988e-05	7
bin	2.60592e-05	1
bin	2.61304e-05	7
bin	2.62016e-05	4
bin	2.62728e-05	5
bin	2.6344e-05	6
bin	2.64152e-05	7
bin	2.64864e-05	10
bin	2.65576e-05	9
bin	2.66288e-05	8
bin	2.67e-05	4
bin	2.67712e-05	5
bin	2.68424e-05	3
bin	2.69136e-05	8
bin	2.69848e-05	2
bin	2.7056e-05	3
bin	2.71272e-05	4
bin	2.71984e-05	5
bin	2.72696e-05	3
bin	2.73408e-05	2
bin	2.7412e-05	3
bin	2.74832e-05	4
bin	2.75544e-05	9
bin	2.76256e-05	5
bin	2.76968e-05	5
bin	2.7768e-05	5
bin	2.78392e-05	3
bin	2.79104e-05	4
bin	2.79816e-05	7
bin	2.80528e-05	2
bin	2.8124e-05	9
bin	2.81952e-05	3
bin	2.82664e-05	2
bin	2.83376e-05	3
bin	2.84088e-05	2
bin	2.848e-05	0
bin	2.85512e-05	3
bin	2.86224e-05	6
bin	2.86936e-05	1
bin	2.87648e-05	5
bin	2.8836e-05	10
bin	2.89072e-05	6
bin	2.89784e-05	8
bin	2.90496e-05	6
bin	2.91208e-05	3
bin	2.9192e-05	5
bin	2.92632e-05	6
bin	2.93344e-05	7
bin	2.94056e-05	4
bin	2.94768e-05	5
bin	2.9548e-05	1
bin	2.96192e-05	6
bin	2.96904e-05	5
bin	2.97616e-05	5
bin	2.98328e-05	4
bin	2.9904e-05	3
bin	2.99752e-05	1
bin	3.00464e-05	2
bin	3.01176e-05	3
bin	3.01888e-05	5
bin	3.026e-05	5
bin	3.03312e-05	1
bin	3.04024e-05	3
bin	3.04736e-05	3
bin	3.05448e-05	2
bin	3.0616e-05	4
bin	3.06872e-05	1
bin	3.07584e-05	3
bin	3.08296e-05	4
bin	3.09008e-05	1
bin	3.0972e-05	1
bin	3.10432e-05	4
bin	3.11144e-05	3
bin	3.11856e-05	2
bin	3.12568e-05	3
bin	3.1328e-05	2
bin	3.13992e-05	3
bin	3.14704e-05	2
bin	3.15416e-05	6
bin	3.16128e-05	3
bin	3.1684e-05	5
bin	3.17552e-05	1
bin	3.18264e-05	2
bin	3.18976e-05	1
bin	3.19688e-05	7
bin	3.204e-05	3
bin	3.21112e-05	3
bin	3.21824e-05	3
bin	3.22536e-05	5
bin	3.23248e-05	1
bin	3.2396e-05	4
bin	3.24672e-05	5
bin	3.25384e-05	0
bin	3.26096e-05	2
bin	3.26808e-05	1
bin	3.2752e-05	4
bin	3.28232e-05	0
bin	3.28944e-05	6
bin	3.29656e-05	1
bin	3.30368e-05	0
bin	3.3108e-05	2
bin	3.31792e-05	2
bin	3.32504e-05	3
bin	3.33216e-05	4
bin	3.33928e-05	2
bin	3.3464e-05	1
bin	3.35352e-05	3
bin	3.36064e-05	4
bin	3.36776e-05	1
bin	3.37488e-05	1
bin	3.382e-05	3
bin	3.38912e-05	4
bin	3.39624e-05	2
bin	3.40336e-05	6
bin	3.41048e-05	2
bin	3.4176e-05	2
bin	3.42472e-05	3
bin	3.43184e-05	5
bin	3.43896e-05	1
bin	3.44608e-05	1
bin	3.4532e-05	0
bin	3.46032e-05	2
bin	3.46744e-05	1
bin	3.47456e-05	2
bin	3.48168e-05	1
bin	3.4888e-05	2
bin	3.49592e-05	2
bin	3.50304e-05	3
bin	3.51016e-05	0
bin	3.51728e-05	1
bin	3.5244e-05	1
bin	3.53152e-05	3
bin	3.53864e-05	0
bin	3.54576e-05	2
bin	3.55288e-05	4
bin	3.56e-05	374
statistic Torus3d_bub.timer 	"Life Times"
field count 6291456
field mean 2.2607269930039e-05
field stddev 1.1548860073641e-05
field sum 142.23264404497
field sqrsum 0.004054621942127
field min 7.33331845e-07
field max 0.001037272666664
bin	-INF	0
bin	0	114
bin	8.544e-07	3041
bin	1.7088e-06	9932
bin	2.5632e-06	20181
bin	3.4176e-06	31495
bin	4.272e-06	41179
bin	5.1264e-06	50653
bin	5.9808e-06	59273
bin	6.8352e-06	67816
bin	7.6896e-06	77826
bin	8.544e-06	88184
bin	9.3984e-06	99355
bin	1.02528e-05	108729
bin	1.11072e-05	111203
bin	1.19616e-05	117423
bin	1.2816e-05	125962
bin	1.36704e-05	133330
bin	1.45248e-05	142917
bin	1.53792e-05	151861
bin	1.62336e-05	161735
bin	1.7088e-05	172291
bin	1.79424e-05	184048
bin	1.87968e-05	196964
bin	1.96512e-05	210342
bin	2.05056e-05	225587
bin	2.136e-05	243067
bin	2.22144e-05	260685
bin	2.30688e-05	277198
bin	2.39232e-05	295171
bin	2.47776e-05	309795
bin	2.5632e-05	319590
bin	2.64864e-05	319166
bin	2.73408e-05	303753
bin	2.81952e-05	276612
bin	2.90496e-05	236717
bin	2.9904e-05	193999
bin	3.07584e-05	152334
bin	3.16128e-05	111436
bin	3.24672e-05	80736
bin	3.33216e-05	58589
bin	3.4176e-05	43009
bin	3.50304e-05	32634
bin	3.58848e-05	24780
bin	3.67392e-05	19307
bin	3.75936e-05	15517
bin	3.8448e-05	12227
bin	3.93024e-05	9898
bin	4.01568e-05	8238
bin	4.10112e-05	6887
bin	4.18656e-05	5664
bin	4.272e-05	4887
bin	4.35744e-05	4422
bin	4.44288e-05	3922
bin	4.52832e-05	3634
bin	4.61376e-05	3242
bin	4.6992e-05	2989
bin	4.78464e-05	2717
bin	4.87008e-05	2540
bin	4.95552e-05	2503
bin	5.04096e-05	2241
bin	5.1264e-05	2230
bin	5.21184e-05	2056
bin	5.29728e-05	1901
bin	5.38272e-05	1746
bin	5.46816e-05	1677
bin	5.5536e-05	1520
bin	5.63904e-05	1408
bin	5.72448e-05	1379
bin	5.80992e-05	1331
bin	5.89536e-05	1212
bin	5.9808e-05	1151
bin	6.06624e-05	1157
bin	6.15168e-05	1162
bin	6.23712e-05	1041
bin	6.32256e-05	921
bin	6.408e-05	889
bin	6.49344e-05	823
bin	6.57888e-05	788
bin	6.66432e-05	697
bin	6.74976e-05	660
bin	6.8352e-05	595
bin	6.92064e-05	532
bin	7.00608e-05	474
bin	7.09152e-05	458
bin	7.17696e-05	442
bin	7.2624e-05	404
bin	7.34784e-05	420
bin	7.43328e-05	378
bin	7.51872e-05	405
bin	7.60416e-05	390
bin	7.6896e-05	362
bin	7.77504e-05	400
bin	7.86048e-05	384
bin	7.94592e-05	315
bin	8.03136e-05	347
bin	8.1168e-05	294
bin	8.20224e-05	300
bin	8.28768e-05	345
bin	8.37312e-05	274
bin	8.45856e-05	299
bin	8.544e-05	286
bin	8.62944e-05	271
bin	8.71488e-05	288
bin	8.80032e-05	270
bin	8.88576e-05	278
bin	8.9712e-05	261
bin	9.05664e-05	278
bin	9.14208e-05	254
bin	9.22752e-05	273
bin	9.31296e-05	258
bin	9.3984e-05	240
bin	9.48384e-05	243
bin	9.56928e-05	245
bin	9.65472e-05	252
bin	9.74016e-05	220
bin	9.8256e-05	208
bin	9.91104e-05	182
bin	9.99648e-05	162
bin	0.0001008192	142
bin	0.0001016736	166
bin	0.000102528	160
bin	0.0001033824	165
bin	0.0001042368	154
bin	0.0001050912	152
bin	0.0001059456	146
bin	0.0001068	174
bin	0.0001076544	183
bin	0.0001085088	159
bin	0.0001093632	144
bin	0.0001102176	123
bin	0.000111072	136
bin	0.0001119264	156
bin	0.0001127808	160
bin	0.0001136352	138
bin	0.0001144896	139
bin	0.000115344	138
bin	0.0001161984	141
bin	0.0001170528	108
bin	0.0001179072	125
bin	0.0001187616	126
bin	0.000119616	103
bin	0.0001204704	115
bin	0.0001213248	108
bin	0.0001221792	94
bin	0.0001230336	107
bin	0.000123888	87
bin	0.0001247424	100
bin	0.0001255968	90
bin	0.0001264512	119
bin	0.0001273056	94
bin	0.00012816	109
bin	0.0001290144	87
bin	0.0001298688	99
bin	0.0001307232	90
bin	0.0001315776	88
bin	0.000132432	77
bin	0.0001332864	88
bin	0.0001341408	109
bin	0.0001349952	85
bin	0.0001358496	99
bin	0.000136704	111
bin	0.0001375584	65
bin	0.0001384128	81
bin	0.0001392672	100
bin	0.0001401216	86
bin	0.000140976	60
bin	0.0001418304	72
bin	0.0001426848	86
bin	0.0001435392	87
bin	0.0001443936	74
bin	0.000145248	74
bin	0.0001461024	66
bin	0.0001469568	64
bin	0.0001478112	68
bin	0.0001486656	76
bin	0.00014952	79
bin	0.0001503744	89
bin	0.0001512288	53
bin	0.0001520832	66
bin	0.0001529376	67
bin	0.000153792	76
bin	0.0001546464	78
bin	0.0001555008	60
bin	0.0001563552	69
bin	0.0001572096	55
bin	0.000158064	56
bin	0.0001589184	70
bin	0.0001597728	52
bin	0.0001606272	37
bin	0.0001614816	41
bin	0.000162336	38
bin	0.0001631904	39
bin	0.0001640448	41
bin	0.0001648992	36
bin	0.0001657536	40
bin	0.000166608	36
bin	0.0001674624	34
bin	0.0001683168	44
bin	0.0001691712	44
bin	0.0001700256	49
bin	0.00017088	63
bin	0.0001717344	41
bin	0.0001725888	48
bin	0.0001734432	46
bin	0.0001742976	53
bin	0.000175152	48
bin	0.0001760064	35
bin	0.0001768608	57
bin	0.0001777152	38
bin	0.0001785696	35
bin	0.000179424	26
bin	0.0001802784	33
bin	0.0001811328	38
bin	0.0001819872	42
bin	0.0001828416	43
bin	0.000183696	38
bin	0.0001845504	39
bin	0.0001854048	45
bin	0.0001862592	34
bin	0.0001871136	46
bin	0.000187968	36
bin	0.0001888224	30
bin	0.0001896768	32
bin	0.0001905312	33
bin	0.0001913856	30
bin	0.00019224	29
bin	0.0001930944	33
bin	0.0001939488	41
bin	0.0001948032	28
bin	0.0001956576	35
bin	0.000196512	28
bin	0.0001973664	34
bin	0.0001982208	25
bin	0.0001990752	38
bin	0.0001999296	35
bin	0.000200784	32
bin	0.0002016384	48
bin	0.0002024928	38
bin	0.0002033472	31
bin	0.0002042016	35
bin	0.000205056	34
bin	0.0002059104	39
bin	0.0002067648	34
bin	0.0002076192	41
bin	0.0002084736	37
bin	0.000209328	20
bin	0.0002101824	29
bin	0.0002110368	39
bin	0.0002118912	44
bin	0.0002127456	34
bin	0.0002136	37
bin	0.0002144544	30
bin	0.0002153088	34
bin	0.0002161632	40
bin	0.0002170176	33
bin	0.000217872	28
bin	0.0002187264	25
bin	0.0002195808	22
bin	0.0002204352	22
bin	0.0002212896	25
bin	0.000222144	24
bin	0.0002229984	16
bin	0.0002238528	18
bin	0.0002247072	15
bin	0.0002255616	17
bin	0.000226416	23
bin	0.0002272704	14
bin	0.0002281248	11
bin	0.0002289792	21
bin	0.0002298336	21
bin	0.000230688	28
bin	0.0002315424	31
bin	0.0002323968	34
bin	0.0002332512	27
bin	0.0002341056	28
bin	0.00023496	26
bin	0.0002358144	28
bin	0.0002366688	27
bin	0.0002375232	20
bin	0.0002383776	20
bin	0.000239232	34
bin	0.0002400864	22
bin	0.0002409408	16
bin	0.0002417952	15
bin	0.0002426496	19
bin	0.000243504	17
bin	0.0002443584	21
bin	0.0002452128	15
bin	0.0002460672	22
bin	0.0002469216	16
bin	0.000247776	14
bin	0.0002486304	15
bin	0.0002494848	18
bin	0.0002503392	20
bin	0.0002511936	15
bin	0.000252048	16
bin	0.0002529024	20
bin	0.0002537568	13
bin	0.0002546112	21
bin	0.0002554656	15
bin	0.00025632	21
bin	0.0002571744	19
bin	0.0002580288	14
bin	0.0002588832	21
bin	0.0002597376	16
bin	0.000260592	13
bin	0.0002614464	15
bin	0.0002623008	11
bin	0.0002631552	15
bin	0.0002640096	8
bin	0.000264864	21
bin	0.0002657184	14
bin	0.0002665728	17
bin	0.0002674272	15
bin	0.0002682816	12
bin	0.000269136	9
bin	0.0002699904	13
bin	0.0002708448	13
bin	0.0002716992	14
bin	0.0002725536	11
bin	0.000273408	12
bin	0.0002742624	11
bin	0.0002751168	14
bin	0.0002759712	20
bin	0.0002768256	11
bin	0.00027768	19
bin	0.0002785344	6
bin	0.0002793888	11
bin	0.0002802432	13
bin	0.0002810976	6
bin	0.000281952	8
bin	0.0002828064	20
bin	0.0002836608	14
bin	0.0002845152	12
bin	0.0002853696	9
bin	0.000286224	7
bin	0.0002870784	11
bin	0.0002879328	11
bin	0.0002887872	11
bin	0.0002896416	13
bin	0.000290496	7
bin	0.0002913504	12
bin	0.0002922048	5
bin	0.0002930592	9
bin	0.0002939136	7
bin	0.000294768	9
bin	0.0002956224	5
bin	0.0002964768	1
bin	0.0002973312	1
bin	0.0002981856	7
bin	0.00029904	3
bin	0.0002998944	5
bin	0.0003007488	4
bin	0.0003016032	2
bin	0.0003024576	3
bin	0.000303312	1
bin	0.0003041664	1
bin	0.0003050208	9
bin	0.0003058752	5
bin	0.0003067296	4
bin	0.000307584	1
bin	0.0003084384	3
bin	0.0003092928	6
bin	0.0003101472	5
bin	0.0003110016	8
bin	0.000311856	4
bin	0.0003127104	2
bin	0.0003135648	1
bin	0.0003144192	1
bin	0.0003152736	4
bin	0.000316128	3
bin	0.0003169824	12
bin	0.0003178368	5
bin	0.0003186912	5
bin	0.0003195456	7
bin	0.0003204	4
bin	0.0003212544	3
bin	0.0003221088	3
bin	0.0003229632	4
bin	0.0003238176	6
bin	0.000324672	2
bin	0.0003255264	8
bin	0.0003263808	6
bin	0.0003272352	5
bin	0.0003280896	2
bin	0.000328944	4
bin	0.0003297984	3
bin	0.0003306528	2
bin	0.0003315072	2
bin	0.0003323616	4
bin	0.000333216	3
bin	0.0003340704	4
bin	0.0003349248	2
bin	0.0003357792	4
bin	0.0003366336	1
bin	0.000337488	2
bin	0.0003383424	2
bin	0.0003391968	1
bin	0.0003400512	0
bin	0.0003409056	0
bin	0.00034176	1
bin	0.0003426144	0
bin	0.0003434688	1
bin	0.0003443232	3
bin	0.0003451776	8
bin	0.000346032	8
bin	0.0003468864	7
bin	0.0003477408	3
bin	0.0003485952	4
bin	0.0003494496	3
bin	0.000350304	4
bin	0.0003511584	1
bin	0.0003520128	3
bin	0.0003528672	3
bin	0.0003537216	4
bin	0.000354576	3
bin	0.0003554304	2
bin	0.0003562848	3
bin	0.0003571392	4
bin	0.0003579936	3
bin	0.000358848	2
bin	0.0003597024	4
bin	0.0003605568	5
bin	0.0003614112	5
bin	0.0003622656	0
bin	0.00036312	3
bin	0.0003639744	0
bin	0.0003648288	0
bin	0.0003656832	1
bin	0.0003665376	1
bin	0.000367392	1
bin	0.0003682464	3
bin	0.0003691008	2
bin	0.0003699552	2
bin	0.0003708096	1
bin	0.000371664	0
bin	0.0003725184	1
bin	0.0003733728	0
bin	0.0003742272	3
bin	0.0003750816	2
bin	0.000375936	2
bin	0.0003767904	7
bin	0.0003776448	5
bin	0.0003784992	2
bin	0.0003793536	2
bin	0.000380208	1
bin	0.0003810624	0
bin	0.0003819168	1
bin	0.0003827712	0
bin	0.0003836256	0
bin	0.00038448	1
bin	0.0003853344	2
bin	0.0003861888	4
bin	0.0003870432	1
bin	0.0003878976	0
bin	0.000388752	2
bin	0.0003896064	6
bin	0.0003904608	2
bin	0.0003913152	1
bin	0.0003921696	3
bin	0.000393024	0
bin	0.0003938784	0
bin	0.0003947328	0
bin	0.0003955872	0
bin	0.0003964416	0
bin	0.000397296	0
bin	0.0003981504	2
bin	0.0003990048	3
bin	0.0003998592	3
bin	0.0004007136	3
bin	0.000401568	4
bin	0.0004024224	2
bin	0.0004032768	3
bin	0.0004041312	3
bin	0.0004049856	1
bin	0.00040584	1
bin	0.0004066944	2
bin	0.0004075488	5
bin	0.0004084032	4
bin	0.0004092576	1
bin	0.000410112	3
bin	0.0004109664	1
bin	0.0004118208	2
bin	0.0004126752	0
bin	0.0004135296	1
bin	0.000414384	0
bin	0.0004152384	1
bin	0.0004160928	0
bin	0.0004169472	0
bin	0.0004178016	0
bin	0.000418656	1
bin	0.0004195104	0
bin	0.0004203648	1
bin	0.0004212192	0
bin	0.0004220736	0
bin	0.000422928	0
bin	0.0004237824	0
bin	0.0004246368	0
bin	0.0004254912	0
bin	0.0004263456	1
bin	0.0004272	223
