version 2
run Permutation-75-20120711-01:52:30-28189
attr alg 3
attr buf 8
attr configname Permutation
attr datetime 20120711-01:52:30
attr delta 0.8
attr experiment Permutation
attr ext false
attr inifile altro.ini
attr iterationvars "$buf=8, $ext=false, $ofedge=2, $delta=0.8, $alg=3"
attr iterationvars2 "$buf=8, $ext=false, $ofedge=2, $delta=0.8, $alg=3, $repetition=0"
attr measurement "$buf=8, $ext=false, $ofedge=2, $delta=0.8, $alg=3"
attr network Torus3d_bub
attr ofedge 2
attr processid 28189
attr repetition 0
attr replication #0
attr resultdir altro-results
attr runnumber 75
attr seedset 75

scalar . 	alg 	3
scalar . 	buf 	8
scalar . 	delta 	0.8
scalar . 	ofedge 	2
scalar Torus3d_bub.timer 	#endTime 	0.001539990666042
scalar Torus3d_bub.timer 	#totalHops 	82626348
scalar Torus3d_bub.timer 	#totalPacks 	6291456
scalar Torus3d_bub.timer 	#totalDerouted 	1420116
scalar Torus3d_bub.timer 	#totalOutFlanked 	736462
scalar Torus3d_bub.timer 	#totalCQRed 	683654
scalar Torus3d_bub.timer 	#LB 	0.000786432
scalar Torus3d_bub.timer 	#ratio 	0.51067322506652
statistic Torus3d_bub.timer 	"Hop Times"
field count 6291456
field mean 6.2467215622331e-06
field stddev 1.0302205123924e-05
field sum 39.300973853041
field sqrsum 0.00091324852514872
field min 3.77125e-07
field max 0.000646415332373
bin	-INF	0
bin	0	0
bin	7.12e-08	0
bin	1.424e-07	0
bin	2.136e-07	0
bin	2.848e-07	0
bin	3.56e-07	328
bin	4.272e-07	5076
bin	4.984e-07	13880
bin	5.696e-07	23757
bin	6.408e-07	34987
bin	7.12e-07	46825
bin	7.832e-07	57168
bin	8.544e-07	65428
bin	9.256e-07	72218
bin	9.968e-07	78508
bin	1.068e-06	86099
bin	1.1392e-06	96131
bin	1.2104e-06	109884
bin	1.2816e-06	127188
bin	1.3528e-06	147290
bin	1.424e-06	168047
bin	1.4952e-06	185857
bin	1.5664e-06	201271
bin	1.6376e-06	211385
bin	1.7088e-06	216918
bin	1.78e-06	216012
bin	1.8512e-06	211853
bin	1.9224e-06	204199
bin	1.9936e-06	193619
bin	2.0648e-06	179957
bin	2.136e-06	166345
bin	2.2072e-06	152512
bin	2.2784e-06	139420
bin	2.3496e-06	126118
bin	2.4208e-06	114224
bin	2.492e-06	102502
bin	2.5632e-06	92435
bin	2.6344e-06	83280
bin	2.7056e-06	75269
bin	2.7768e-06	68594
bin	2.848e-06	61721
bin	2.9192e-06	56849
bin	2.9904e-06	51512
bin	3.0616e-06	47133
bin	3.1328e-06	43194
bin	3.204e-06	39955
bin	3.2752e-06	36320
bin	3.3464e-06	33445
bin	3.4176e-06	30976
bin	3.4888e-06	29118
bin	3.56e-06	26996
bin	3.6312e-06	25153
bin	3.7024e-06	23455
bin	3.7736e-06	21933
bin	3.8448e-06	20536
bin	3.916e-06	19255
bin	3.9872e-06	17707
bin	4.0584e-06	16826
bin	4.1296e-06	15767
bin	4.2008e-06	15141
bin	4.272e-06	14235
bin	4.3432e-06	13875
bin	4.4144e-06	13252
bin	4.4856e-06	12453
bin	4.5568e-06	12055
bin	4.628e-06	11335
bin	4.6992e-06	11145
bin	4.7704e-06	10600
bin	4.8416e-06	10014
bin	4.9128e-06	9951
bin	4.984e-06	9312
bin	5.0552e-06	9191
bin	5.1264e-06	8970
bin	5.1976e-06	8748
bin	5.2688e-06	8271
bin	5.34e-06	8018
bin	5.4112e-06	7733
bin	5.4824e-06	7479
bin	5.5536e-06	7289
bin	5.6248e-06	7248
bin	5.696e-06	7010
bin	5.7672e-06	6765
bin	5.8384e-06	6704
bin	5.9096e-06	6542
bin	5.9808e-06	6440
bin	6.052e-06	6118
bin	6.1232e-06	6198
bin	6.1944e-06	6072
bin	6.2656e-06	5977
bin	6.3368e-06	5799
bin	6.408e-06	5732
bin	6.4792e-06	5386
bin	6.5504e-06	5358
bin	6.6216e-06	5422
bin	6.6928e-06	5271
bin	6.764e-06	5221
bin	6.8352e-06	4929
bin	6.9064e-06	4961
bin	6.9776e-06	5016
bin	7.0488e-06	4925
bin	7.12e-06	4768
bin	7.1912e-06	4663
bin	7.2624e-06	4572
bin	7.3336e-06	4597
bin	7.4048e-06	4565
bin	7.476e-06	4568
bin	7.5472e-06	4419
bin	7.6184e-06	4263
bin	7.6896e-06	4326
bin	7.7608e-06	4202
bin	7.832e-06	4208
bin	7.9032e-06	4240
bin	7.9744e-06	4099
bin	8.0456e-06	4152
bin	8.1168e-06	4020
bin	8.188e-06	3950
bin	8.2592e-06	4050
bin	8.3304e-06	3975
bin	8.4016e-06	3927
bin	8.4728e-06	3831
bin	8.544e-06	4003
bin	8.6152e-06	3904
bin	8.6864e-06	3789
bin	8.7576e-06	3812
bin	8.8288e-06	3741
bin	8.9e-06	3734
bin	8.9712e-06	3653
bin	9.0424e-06	3742
bin	9.1136e-06	3642
bin	9.1848e-06	3640
bin	9.256e-06	3565
bin	9.3272e-06	3676
bin	9.3984e-06	3596
bin	9.4696e-06	3423
bin	9.5408e-06	3552
bin	9.612e-06	3426
bin	9.6832e-06	3487
bin	9.7544e-06	3440
bin	9.8256e-06	3540
bin	9.8968e-06	3541
bin	9.968e-06	3455
bin	1.00392e-05	3430
bin	1.01104e-05	3351
bin	1.01816e-05	3319
bin	1.02528e-05	3262
bin	1.0324e-05	3330
bin	1.03952e-05	3390
bin	1.04664e-05	3322
bin	1.05376e-05	3356
bin	1.06088e-05	3453
bin	1.068e-05	3427
bin	1.07512e-05	3448
bin	1.08224e-05	3435
bin	1.08936e-05	3391
bin	1.09648e-05	3348
bin	1.1036e-05	3363
bin	1.11072e-05	3353
bin	1.11784e-05	3392
bin	1.12496e-05	3325
bin	1.13208e-05	3314
bin	1.1392e-05	3330
bin	1.14632e-05	3292
bin	1.15344e-05	3323
bin	1.16056e-05	3386
bin	1.16768e-05	3411
bin	1.1748e-05	3416
bin	1.18192e-05	3305
bin	1.18904e-05	3382
bin	1.19616e-05	3314
bin	1.20328e-05	3271
bin	1.2104e-05	3462
bin	1.21752e-05	3499
bin	1.22464e-05	3336
bin	1.23176e-05	3454
bin	1.23888e-05	3279
bin	1.246e-05	3371
bin	1.25312e-05	3340
bin	1.26024e-05	3428
bin	1.26736e-05	3432
bin	1.27448e-05	3419
bin	1.2816e-05	3541
bin	1.28872e-05	3452
bin	1.29584e-05	3508
bin	1.30296e-05	3339
bin	1.31008e-05	3349
bin	1.3172e-05	3360
bin	1.32432e-05	3420
bin	1.33144e-05	3446
bin	1.33856e-05	3525
bin	1.34568e-05	3705
bin	1.3528e-05	3568
bin	1.35992e-05	3570
bin	1.36704e-05	3655
bin	1.37416e-05	3597
bin	1.38128e-05	3543
bin	1.3884e-05	3686
bin	1.39552e-05	3589
bin	1.40264e-05	3658
bin	1.40976e-05	3656
bin	1.41688e-05	3603
bin	1.424e-05	3580
bin	1.43112e-05	3600
bin	1.43824e-05	3690
bin	1.44536e-05	3679
bin	1.45248e-05	3674
bin	1.4596e-05	3739
bin	1.46672e-05	3795
bin	1.47384e-05	3717
bin	1.48096e-05	3754
bin	1.48808e-05	3634
bin	1.4952e-05	3745
bin	1.50232e-05	3696
bin	1.50944e-05	3675
bin	1.51656e-05	3793
bin	1.52368e-05	3717
bin	1.5308e-05	3747
bin	1.53792e-05	3848
bin	1.54504e-05	3710
bin	1.55216e-05	3762
bin	1.55928e-05	3695
bin	1.5664e-05	3754
bin	1.57352e-05	3769
bin	1.58064e-05	3834
bin	1.58776e-05	3821
bin	1.59488e-05	3741
bin	1.602e-05	3894
bin	1.60912e-05	3696
bin	1.61624e-05	3794
bin	1.62336e-05	3795
bin	1.63048e-05	3743
bin	1.6376e-05	3751
bin	1.64472e-05	3864
bin	1.65184e-05	3845
bin	1.65896e-05	3863
bin	1.66608e-05	3815
bin	1.6732e-05	3872
bin	1.68032e-05	3868
bin	1.68744e-05	3893
bin	1.69456e-05	3741
bin	1.70168e-05	3934
bin	1.7088e-05	3763
bin	1.71592e-05	3864
bin	1.72304e-05	3807
bin	1.73016e-05	3727
bin	1.73728e-05	3903
bin	1.7444e-05	3858
bin	1.75152e-05	3977
bin	1.75864e-05	3780
bin	1.76576e-05	3766
bin	1.77288e-05	3888
bin	1.78e-05	3916
bin	1.78712e-05	3762
bin	1.79424e-05	3940
bin	1.80136e-05	3866
bin	1.80848e-05	3806
bin	1.8156e-05	3836
bin	1.82272e-05	3935
bin	1.82984e-05	3835
bin	1.83696e-05	3822
bin	1.84408e-05	3875
bin	1.8512e-05	3875
bin	1.85832e-05	3850
bin	1.86544e-05	3789
bin	1.87256e-05	3862
bin	1.87968e-05	3793
bin	1.8868e-05	3813
bin	1.89392e-05	3714
bin	1.90104e-05	3780
bin	1.90816e-05	3786
bin	1.91528e-05	3830
bin	1.9224e-05	3917
bin	1.92952e-05	3780
bin	1.93664e-05	3829
bin	1.94376e-05	3738
bin	1.95088e-05	3775
bin	1.958e-05	3787
bin	1.96512e-05	3735
bin	1.97224e-05	3648
bin	1.97936e-05	3750
bin	1.98648e-05	3714
bin	1.9936e-05	3625
bin	2.00072e-05	3640
bin	2.00784e-05	3703
bin	2.01496e-05	3550
bin	2.02208e-05	3621
bin	2.0292e-05	3619
bin	2.03632e-05	3518
bin	2.04344e-05	3622
bin	2.05056e-05	3502
bin	2.05768e-05	3475
bin	2.0648e-05	3519
bin	2.07192e-05	3422
bin	2.07904e-05	3379
bin	2.08616e-05	3392
bin	2.09328e-05	3378
bin	2.1004e-05	3411
bin	2.10752e-05	3438
bin	2.11464e-05	3342
bin	2.12176e-05	3321
bin	2.12888e-05	3339
bin	2.136e-05	3347
bin	2.14312e-05	3338
bin	2.15024e-05	3275
bin	2.15736e-05	3270
bin	2.16448e-05	3200
bin	2.1716e-05	3296
bin	2.17872e-05	3323
bin	2.18584e-05	3333
bin	2.19296e-05	3203
bin	2.20008e-05	3252
bin	2.2072e-05	3269
bin	2.21432e-05	3167
bin	2.22144e-05	3144
bin	2.22856e-05	3092
bin	2.23568e-05	3067
bin	2.2428e-05	3151
bin	2.24992e-05	3182
bin	2.25704e-05	3093
bin	2.26416e-05	3031
bin	2.27128e-05	3006
bin	2.2784e-05	2950
bin	2.28552e-05	2960
bin	2.29264e-05	3038
bin	2.29976e-05	3027
bin	2.30688e-05	2954
bin	2.314e-05	2964
bin	2.32112e-05	2907
bin	2.32824e-05	2858
bin	2.33536e-05	2830
bin	2.34248e-05	2872
bin	2.3496e-05	2824
bin	2.35672e-05	2777
bin	2.36384e-05	2769
bin	2.37096e-05	2796
bin	2.37808e-05	2757
bin	2.3852e-05	2725
bin	2.39232e-05	2737
bin	2.39944e-05	2770
bin	2.40656e-05	2771
bin	2.41368e-05	2731
bin	2.4208e-05	2734
bin	2.42792e-05	2644
bin	2.43504e-05	2607
bin	2.44216e-05	2641
bin	2.44928e-05	2550
bin	2.4564e-05	2544
bin	2.46352e-05	2476
bin	2.47064e-05	2569
bin	2.47776e-05	2594
bin	2.48488e-05	2518
bin	2.492e-05	2440
bin	2.49912e-05	2467
bin	2.50624e-05	2431
bin	2.51336e-05	2518
bin	2.52048e-05	2538
bin	2.5276e-05	2546
bin	2.53472e-05	2533
bin	2.54184e-05	2428
bin	2.54896e-05	2541
bin	2.55608e-05	2502
bin	2.5632e-05	2390
bin	2.57032e-05	2259
bin	2.57744e-05	2298
bin	2.58456e-05	2293
bin	2.59168e-05	2300
bin	2.5988e-05	2276
bin	2.60592e-05	2278
bin	2.61304e-05	2251
bin	2.62016e-05	2265
bin	2.62728e-05	2353
bin	2.6344e-05	2286
bin	2.64152e-05	2310
bin	2.64864e-05	2305
bin	2.65576e-05	2211
bin	2.66288e-05	2232
bin	2.67e-05	2201
bin	2.67712e-05	2182
bin	2.68424e-05	2030
bin	2.69136e-05	2112
bin	2.69848e-05	2070
bin	2.7056e-05	2019
bin	2.71272e-05	2056
bin	2.71984e-05	2000
bin	2.72696e-05	1964
bin	2.73408e-05	2033
bin	2.7412e-05	2015
bin	2.74832e-05	2011
bin	2.75544e-05	2077
bin	2.76256e-05	2025
bin	2.76968e-05	1937
bin	2.7768e-05	1895
bin	2.78392e-05	1968
bin	2.79104e-05	2038
bin	2.79816e-05	1940
bin	2.80528e-05	1948
bin	2.8124e-05	1886
bin	2.81952e-05	1873
bin	2.82664e-05	1961
bin	2.83376e-05	1829
bin	2.84088e-05	1864
bin	2.848e-05	1827
bin	2.85512e-05	1909
bin	2.86224e-05	1848
bin	2.86936e-05	1843
bin	2.87648e-05	1825
bin	2.8836e-05	1792
bin	2.89072e-05	1769
bin	2.89784e-05	1789
bin	2.90496e-05	1803
bin	2.91208e-05	1793
bin	2.9192e-05	1771
bin	2.92632e-05	1741
bin	2.93344e-05	1728
bin	2.94056e-05	1694
bin	2.94768e-05	1682
bin	2.9548e-05	1645
bin	2.96192e-05	1661
bin	2.96904e-05	1563
bin	2.97616e-05	1619
bin	2.98328e-05	1689
bin	2.9904e-05	1636
bin	2.99752e-05	1650
bin	3.00464e-05	1581
bin	3.01176e-05	1518
bin	3.01888e-05	1585
bin	3.026e-05	1558
bin	3.03312e-05	1547
bin	3.04024e-05	1490
bin	3.04736e-05	1531
bin	3.05448e-05	1561
bin	3.0616e-05	1526
bin	3.06872e-05	1526
bin	3.07584e-05	1489
bin	3.08296e-05	1447
bin	3.09008e-05	1454
bin	3.0972e-05	1399
bin	3.10432e-05	1428
bin	3.11144e-05	1423
bin	3.11856e-05	1419
bin	3.12568e-05	1352
bin	3.1328e-05	1374
bin	3.13992e-05	1399
bin	3.14704e-05	1341
bin	3.15416e-05	1367
bin	3.16128e-05	1332
bin	3.1684e-05	1283
bin	3.17552e-05	1345
bin	3.18264e-05	1314
bin	3.18976e-05	1330
bin	3.19688e-05	1294
bin	3.204e-05	1237
bin	3.21112e-05	1237
bin	3.21824e-05	1244
bin	3.22536e-05	1254
bin	3.23248e-05	1235
bin	3.2396e-05	1162
bin	3.24672e-05	1205
bin	3.25384e-05	1225
bin	3.26096e-05	1244
bin	3.26808e-05	1183
bin	3.2752e-05	1206
bin	3.28232e-05	1117
bin	3.28944e-05	1184
bin	3.29656e-05	1144
bin	3.30368e-05	1166
bin	3.3108e-05	1157
bin	3.31792e-05	1105
bin	3.32504e-05	1107
bin	3.33216e-05	1122
bin	3.33928e-05	1094
bin	3.3464e-05	1022
bin	3.35352e-05	1040
bin	3.36064e-05	1089
bin	3.36776e-05	1010
bin	3.37488e-05	1041
bin	3.382e-05	979
bin	3.38912e-05	986
bin	3.39624e-05	993
bin	3.40336e-05	975
bin	3.41048e-05	965
bin	3.4176e-05	1037
bin	3.42472e-05	948
bin	3.43184e-05	907
bin	3.43896e-05	976
bin	3.44608e-05	964
bin	3.4532e-05	898
bin	3.46032e-05	960
bin	3.46744e-05	936
bin	3.47456e-05	947
bin	3.48168e-05	996
bin	3.4888e-05	958
bin	3.49592e-05	954
bin	3.50304e-05	902
bin	3.51016e-05	860
bin	3.51728e-05	886
bin	3.5244e-05	870
bin	3.53152e-05	873
bin	3.53864e-05	866
bin	3.54576e-05	889
bin	3.55288e-05	835
bin	3.56e-05	143033
statistic Torus3d_bub.timer 	"Life Times"
field count 6291456
field mean 8.0545807317341e-05
field stddev 0.00011922072566199
field sum 506.75040272153
field sqrsum 0.13024072823474
field min 5.2e-07
field max 0.001283112332657
bin	-INF	0
bin	0	68
bin	8.544e-07	1812
bin	1.7088e-06	5741
bin	2.5632e-06	11730
bin	3.4176e-06	18221
bin	4.272e-06	24327
bin	5.1264e-06	30159
bin	5.9808e-06	36372
bin	6.8352e-06	42239
bin	7.6896e-06	49310
bin	8.544e-06	57220
bin	9.3984e-06	65433
bin	1.02528e-05	71936
bin	1.11072e-05	74298
bin	1.19616e-05	78859
bin	1.2816e-05	85157
bin	1.36704e-05	89463
bin	1.45248e-05	94655
bin	1.53792e-05	100494
bin	1.62336e-05	106895
bin	1.7088e-05	113716
bin	1.79424e-05	120470
bin	1.87968e-05	128375
bin	1.96512e-05	135894
bin	2.05056e-05	144461
bin	2.136e-05	154418
bin	2.22144e-05	164731
bin	2.30688e-05	174509
bin	2.39232e-05	184692
bin	2.47776e-05	193738
bin	2.5632e-05	201042
bin	2.64864e-05	203523
bin	2.73408e-05	200510
bin	2.81952e-05	189909
bin	2.90496e-05	173401
bin	2.9904e-05	154130
bin	3.07584e-05	133571
bin	3.16128e-05	111268
bin	3.24672e-05	92005
bin	3.33216e-05	77405
bin	3.4176e-05	66468
bin	3.50304e-05	57949
bin	3.58848e-05	50241
bin	3.67392e-05	44300
bin	3.75936e-05	39387
bin	3.8448e-05	35195
bin	3.93024e-05	31443
bin	4.01568e-05	27674
bin	4.10112e-05	25177
bin	4.18656e-05	22296
bin	4.272e-05	19994
bin	4.35744e-05	18507
bin	4.44288e-05	17083
bin	4.52832e-05	16256
bin	4.61376e-05	15459
bin	4.6992e-05	14539
bin	4.78464e-05	13963
bin	4.87008e-05	13569
bin	4.95552e-05	13004
bin	5.04096e-05	12638
bin	5.1264e-05	12341
bin	5.21184e-05	11972
bin	5.29728e-05	11842
bin	5.38272e-05	11793
bin	5.46816e-05	11573
bin	5.5536e-05	11410
bin	5.63904e-05	11594
bin	5.72448e-05	11366
bin	5.80992e-05	11189
bin	5.89536e-05	10982
bin	5.9808e-05	11104
bin	6.06624e-05	11009
bin	6.15168e-05	10870
bin	6.23712e-05	10656
bin	6.32256e-05	10215
bin	6.408e-05	9883
bin	6.49344e-05	9379
bin	6.57888e-05	8882
bin	6.66432e-05	8587
bin	6.74976e-05	8060
bin	6.8352e-05	7636
bin	6.92064e-05	7319
bin	7.00608e-05	6816
bin	7.09152e-05	6524
bin	7.17696e-05	6216
bin	7.2624e-05	5711
bin	7.34784e-05	5537
bin	7.43328e-05	5250
bin	7.51872e-05	5198
bin	7.60416e-05	4959
bin	7.6896e-05	4795
bin	7.77504e-05	4698
bin	7.86048e-05	4586
bin	7.94592e-05	4499
bin	8.03136e-05	4547
bin	8.1168e-05	4531
bin	8.20224e-05	4495
bin	8.28768e-05	4375
bin	8.37312e-05	4551
bin	8.45856e-05	4455
bin	8.544e-05	4494
bin	8.62944e-05	4453
bin	8.71488e-05	4465
bin	8.80032e-05	4580
bin	8.88576e-05	4515
bin	8.9712e-05	4542
bin	9.05664e-05	4487
bin	9.14208e-05	4600
bin	9.22752e-05	4548
bin	9.31296e-05	4624
bin	9.3984e-05	4483
bin	9.48384e-05	4469
bin	9.56928e-05	4351
bin	9.65472e-05	4285
bin	9.74016e-05	4096
bin	9.8256e-05	4185
bin	9.91104e-05	3902
bin	9.99648e-05	3804
bin	0.0001008192	3640
bin	0.0001016736	3470
bin	0.000102528	3494
bin	0.0001033824	3319
bin	0.0001042368	3301
bin	0.0001050912	3124
bin	0.0001059456	3219
bin	0.0001068	3030
bin	0.0001076544	3043
bin	0.0001085088	3072
bin	0.0001093632	2907
bin	0.0001102176	2908
bin	0.000111072	2863
bin	0.0001119264	2851
bin	0.0001127808	2896
bin	0.0001136352	2949
bin	0.0001144896	2971
bin	0.000115344	2900
bin	0.0001161984	2954
bin	0.0001170528	2890
bin	0.0001179072	2944
bin	0.0001187616	2909
bin	0.000119616	2974
bin	0.0001204704	2961
bin	0.0001213248	3086
bin	0.0001221792	3093
bin	0.0001230336	2998
bin	0.000123888	3067
bin	0.0001247424	3044
bin	0.0001255968	3056
bin	0.0001264512	3006
bin	0.0001273056	2906
bin	0.00012816	2946
bin	0.0001290144	2878
bin	0.0001298688	2670
bin	0.0001307232	2695
bin	0.0001315776	2668
bin	0.000132432	2645
bin	0.0001332864	2606
bin	0.0001341408	2638
bin	0.0001349952	2540
bin	0.0001358496	2536
bin	0.000136704	2387
bin	0.0001375584	2324
bin	0.0001384128	2293
bin	0.0001392672	2279
bin	0.0001401216	2283
bin	0.000140976	2386
bin	0.0001418304	2342
bin	0.0001426848	2309
bin	0.0001435392	2376
bin	0.0001443936	2337
bin	0.000145248	2407
bin	0.0001461024	2435
bin	0.0001469568	2404
bin	0.0001478112	2434
bin	0.0001486656	2411
bin	0.00014952	2457
bin	0.0001503744	2501
bin	0.0001512288	2548
bin	0.0001520832	2445
bin	0.0001529376	2506
bin	0.000153792	2550
bin	0.0001546464	2528
bin	0.0001555008	2596
bin	0.0001563552	2567
bin	0.0001572096	2458
bin	0.000158064	2487
bin	0.0001589184	2380
bin	0.0001597728	2442
bin	0.0001606272	2504
bin	0.0001614816	2504
bin	0.000162336	2518
bin	0.0001631904	2426
bin	0.0001640448	2406
bin	0.0001648992	2406
bin	0.0001657536	2403
bin	0.000166608	2383
bin	0.0001674624	2396
bin	0.0001683168	2286
bin	0.0001691712	2307
bin	0.0001700256	2292
bin	0.00017088	2273
bin	0.0001717344	2253
bin	0.0001725888	2310
bin	0.0001734432	2297
bin	0.0001742976	2342
bin	0.000175152	2315
bin	0.0001760064	2345
bin	0.0001768608	2327
bin	0.0001777152	2365
bin	0.0001785696	2460
bin	0.000179424	2392
bin	0.0001802784	2285
bin	0.0001811328	2471
bin	0.0001819872	2497
bin	0.0001828416	2421
bin	0.000183696	2449
bin	0.0001845504	2508
bin	0.0001854048	2508
bin	0.0001862592	2481
bin	0.0001871136	2543
bin	0.000187968	2506
bin	0.0001888224	2489
bin	0.0001896768	2442
bin	0.0001905312	2526
bin	0.0001913856	2500
bin	0.00019224	2448
bin	0.0001930944	2444
bin	0.0001939488	2384
bin	0.0001948032	2447
bin	0.0001956576	2391
bin	0.000196512	2378
bin	0.0001973664	2293
bin	0.0001982208	2443
bin	0.0001990752	2331
bin	0.0001999296	2400
bin	0.000200784	2361
bin	0.0002016384	2481
bin	0.0002024928	2479
bin	0.0002033472	2412
bin	0.0002042016	2409
bin	0.000205056	2368
bin	0.0002059104	2411
bin	0.0002067648	2385
bin	0.0002076192	2437
bin	0.0002084736	2444
bin	0.000209328	2461
bin	0.0002101824	2454
bin	0.0002110368	2541
bin	0.0002118912	2450
bin	0.0002127456	2514
bin	0.0002136	2481
bin	0.0002144544	2468
bin	0.0002153088	2556
bin	0.0002161632	2574
bin	0.0002170176	2638
bin	0.000217872	2568
bin	0.0002187264	2596
bin	0.0002195808	2638
bin	0.0002204352	2567
bin	0.0002212896	2556
bin	0.000222144	2605
bin	0.0002229984	2522
bin	0.0002238528	2489
bin	0.0002247072	2512
bin	0.0002255616	2520
bin	0.000226416	2542
bin	0.0002272704	2637
bin	0.0002281248	2612
bin	0.0002289792	2541
bin	0.0002298336	2608
bin	0.000230688	2628
bin	0.0002315424	2611
bin	0.0002323968	2622
bin	0.0002332512	2622
bin	0.0002341056	2604
bin	0.00023496	2667
bin	0.0002358144	2624
bin	0.0002366688	2587
bin	0.0002375232	2710
bin	0.0002383776	2719
bin	0.000239232	2694
bin	0.0002400864	2664
bin	0.0002409408	2707
bin	0.0002417952	2620
bin	0.0002426496	2684
bin	0.000243504	2684
bin	0.0002443584	2728
bin	0.0002452128	2743
bin	0.0002460672	2710
bin	0.0002469216	2848
bin	0.000247776	2784
bin	0.0002486304	2832
bin	0.0002494848	2762
bin	0.0002503392	2746
bin	0.0002511936	2740
bin	0.000252048	2810
bin	0.0002529024	2782
bin	0.0002537568	2829
bin	0.0002546112	2780
bin	0.0002554656	2825
bin	0.00025632	2738
bin	0.0002571744	2822
bin	0.0002580288	2837
bin	0.0002588832	2835
bin	0.0002597376	2792
bin	0.000260592	2805
bin	0.0002614464	2923
bin	0.0002623008	2856
bin	0.0002631552	3002
bin	0.0002640096	2921
bin	0.000264864	2897
bin	0.0002657184	2934
bin	0.0002665728	2993
bin	0.0002674272	2870
bin	0.0002682816	3019
bin	0.000269136	3007
bin	0.0002699904	2963
bin	0.0002708448	3022
bin	0.0002716992	2986
bin	0.0002725536	3005
bin	0.000273408	2982
bin	0.0002742624	3116
bin	0.0002751168	3098
bin	0.0002759712	3024
bin	0.0002768256	3108
bin	0.00027768	3100
bin	0.0002785344	3129
bin	0.0002793888	3201
bin	0.0002802432	3143
bin	0.0002810976	3239
bin	0.000281952	3150
bin	0.0002828064	3165
bin	0.0002836608	3169
bin	0.0002845152	3149
bin	0.0002853696	3117
bin	0.000286224	3138
bin	0.0002870784	3151
bin	0.0002879328	3144
bin	0.0002887872	3307
bin	0.0002896416	3188
bin	0.000290496	3231
bin	0.0002913504	3211
bin	0.0002922048	3246
bin	0.0002930592	3274
bin	0.0002939136	3280
bin	0.000294768	3337
bin	0.0002956224	3273
bin	0.0002964768	3286
bin	0.0002973312	3321
bin	0.0002981856	3315
bin	0.00029904	3397
bin	0.0002998944	3351
bin	0.0003007488	3364
bin	0.0003016032	3506
bin	0.0003024576	3481
bin	0.000303312	3471
bin	0.0003041664	3467
bin	0.0003050208	3418
bin	0.0003058752	3424
bin	0.0003067296	3498
bin	0.000307584	3508
bin	0.0003084384	3478
bin	0.0003092928	3508
bin	0.0003101472	3463
bin	0.0003110016	3578
bin	0.000311856	3431
bin	0.0003127104	3590
bin	0.0003135648	3705
bin	0.0003144192	3671
bin	0.0003152736	3637
bin	0.000316128	3634
bin	0.0003169824	3530
bin	0.0003178368	3659
bin	0.0003186912	3649
bin	0.0003195456	3665
bin	0.0003204	3709
bin	0.0003212544	3800
bin	0.0003221088	3758
bin	0.0003229632	3783
bin	0.0003238176	3693
bin	0.000324672	3694
bin	0.0003255264	3779
bin	0.0003263808	3762
bin	0.0003272352	3668
bin	0.0003280896	3656
bin	0.000328944	3673
bin	0.0003297984	3694
bin	0.0003306528	3677
bin	0.0003315072	3664
bin	0.0003323616	3669
bin	0.000333216	3768
bin	0.0003340704	3643
bin	0.0003349248	3638
bin	0.0003357792	3761
bin	0.0003366336	3639
bin	0.000337488	3727
bin	0.0003383424	3645
bin	0.0003391968	3726
bin	0.0003400512	3629
bin	0.0003409056	3612
bin	0.00034176	3764
bin	0.0003426144	3560
bin	0.0003434688	3658
bin	0.0003443232	3627
bin	0.0003451776	3530
bin	0.000346032	3639
bin	0.0003468864	3591
bin	0.0003477408	3541
bin	0.0003485952	3537
bin	0.0003494496	3549
bin	0.000350304	3466
bin	0.0003511584	3486
bin	0.0003520128	3334
bin	0.0003528672	3388
bin	0.0003537216	3379
bin	0.000354576	3466
bin	0.0003554304	3397
bin	0.0003562848	3306
bin	0.0003571392	3429
bin	0.0003579936	3348
bin	0.000358848	3358
bin	0.0003597024	3218
bin	0.0003605568	3298
bin	0.0003614112	3326
bin	0.0003622656	3321
bin	0.00036312	3296
bin	0.0003639744	3271
bin	0.0003648288	3273
bin	0.0003656832	3230
bin	0.0003665376	3272
bin	0.000367392	3140
bin	0.0003682464	3075
bin	0.0003691008	3037
bin	0.0003699552	3032
bin	0.0003708096	3156
bin	0.000371664	3146
bin	0.0003725184	3045
bin	0.0003733728	3028
bin	0.0003742272	3048
bin	0.0003750816	2997
bin	0.000375936	2979
bin	0.0003767904	2991
bin	0.0003776448	2998
bin	0.0003784992	2951
bin	0.0003793536	2791
bin	0.000380208	2774
bin	0.0003810624	2835
bin	0.0003819168	2859
bin	0.0003827712	2726
bin	0.0003836256	2689
bin	0.00038448	2710
bin	0.0003853344	2695
bin	0.0003861888	2759
bin	0.0003870432	2721
bin	0.0003878976	2635
bin	0.000388752	2690
bin	0.0003896064	2608
bin	0.0003904608	2595
bin	0.0003913152	2562
bin	0.0003921696	2577
bin	0.000393024	2702
bin	0.0003938784	2522
bin	0.0003947328	2455
bin	0.0003955872	2488
bin	0.0003964416	2611
bin	0.000397296	2536
bin	0.0003981504	2492
bin	0.0003990048	2418
bin	0.0003998592	2369
bin	0.0004007136	2437
bin	0.000401568	2322
bin	0.0004024224	2391
bin	0.0004032768	2349
bin	0.0004041312	2303
bin	0.0004049856	2216
bin	0.00040584	2207
bin	0.0004066944	2245
bin	0.0004075488	2185
bin	0.0004084032	2207
bin	0.0004092576	2171
bin	0.000410112	2174
bin	0.0004109664	2107
bin	0.0004118208	2005
bin	0.0004126752	2047
bin	0.0004135296	2062
bin	0.000414384	2030
bin	0.0004152384	2091
bin	0.0004160928	2026
bin	0.0004169472	2036
bin	0.0004178016	1965
bin	0.000418656	2016
bin	0.0004195104	2005
bin	0.0004203648	1991
bin	0.0004212192	1881
bin	0.0004220736	1928
bin	0.000422928	1950
bin	0.0004237824	1879
bin	0.0004246368	1856
bin	0.0004254912	1791
bin	0.0004263456	1771
bin	0.0004272	154719
