version 2
run Permutation-28-20120710-21:56:26-28097
attr alg 0
attr buf 8
attr configname Permutation
attr datetime 20120710-21:56:26
attr delta 0.6
attr experiment Permutation
attr ext true
attr inifile altro.ini
attr iterationvars "$buf=8, $ext=true, $ofedge=2, $delta=0.6, $alg=0"
attr iterationvars2 "$buf=8, $ext=true, $ofedge=2, $delta=0.6, $alg=0, $repetition=0"
attr measurement "$buf=8, $ext=true, $ofedge=2, $delta=0.6, $alg=0"
attr network Torus3d_bub
attr ofedge 2
attr processid 28097
attr repetition 0
attr replication #0
attr resultdir altro-results
attr runnumber 28
attr seedset 28

scalar . 	alg 	0
scalar . 	buf 	8
scalar . 	delta 	0.6
scalar . 	ofedge 	2
scalar Torus3d_bub.timer 	#endTime 	0.001346093331477
scalar Torus3d_bub.timer 	#totalHops 	76339200
scalar Torus3d_bub.timer 	#totalPacks 	6291456
scalar Torus3d_bub.timer 	#totalDerouted 	0
scalar Torus3d_bub.timer 	#totalOutFlanked 	0
scalar Torus3d_bub.timer 	#totalCQRed 	0
scalar Torus3d_bub.timer 	#LB 	0.000786432
scalar Torus3d_bub.timer 	#ratio 	0.58423289203661
statistic Torus3d_bub.timer 	"Hop Times"
field count 6291456
field mean 1.902627992253e-06
field stddev 9.2421326941302e-07
field sum 11.970300297628
field sqrsum 2.8149001592224e-05
field min 3.95566513e-07
field max 0.000131522566666
bin	-INF	0
bin	0	0
bin	7.12e-08	0
bin	1.424e-07	0
bin	2.136e-07	0
bin	2.848e-07	0
bin	3.56e-07	665
bin	4.272e-07	15226
bin	4.984e-07	38989
bin	5.696e-07	60608
bin	6.408e-07	84267
bin	7.12e-07	103128
bin	7.832e-07	117598
bin	8.544e-07	126533
bin	9.256e-07	133381
bin	9.968e-07	139289
bin	1.068e-06	144655
bin	1.1392e-06	153527
bin	1.2104e-06	168595
bin	1.2816e-06	189005
bin	1.3528e-06	212716
bin	1.424e-06	239555
bin	1.4952e-06	264848
bin	1.5664e-06	283647
bin	1.6376e-06	295618
bin	1.7088e-06	298398
bin	1.78e-06	295522
bin	1.8512e-06	285276
bin	1.9224e-06	270009
bin	1.9936e-06	250022
bin	2.0648e-06	228554
bin	2.136e-06	207760
bin	2.2072e-06	186085
bin	2.2784e-06	166009
bin	2.3496e-06	147248
bin	2.4208e-06	130166
bin	2.492e-06	114861
bin	2.5632e-06	100903
bin	2.6344e-06	88850
bin	2.7056e-06	78682
bin	2.7768e-06	69819
bin	2.848e-06	61651
bin	2.9192e-06	54176
bin	2.9904e-06	48200
bin	3.0616e-06	42002
bin	3.1328e-06	37707
bin	3.204e-06	33373
bin	3.2752e-06	29568
bin	3.3464e-06	26749
bin	3.4176e-06	23413
bin	3.4888e-06	21314
bin	3.56e-06	18852
bin	3.6312e-06	17241
bin	3.7024e-06	15493
bin	3.7736e-06	13617
bin	3.8448e-06	12292
bin	3.916e-06	10886
bin	3.9872e-06	9845
bin	4.0584e-06	8844
bin	4.1296e-06	8187
bin	4.2008e-06	7133
bin	4.272e-06	6683
bin	4.3432e-06	6193
bin	4.4144e-06	5685
bin	4.4856e-06	4998
bin	4.5568e-06	4821
bin	4.628e-06	4120
bin	4.6992e-06	3924
bin	4.7704e-06	3599
bin	4.8416e-06	3357
bin	4.9128e-06	2982
bin	4.984e-06	2614
bin	5.0552e-06	2595
bin	5.1264e-06	2415
bin	5.1976e-06	2292
bin	5.2688e-06	2014
bin	5.34e-06	2029
bin	5.4112e-06	1880
bin	5.4824e-06	1889
bin	5.5536e-06	1707
bin	5.6248e-06	1601
bin	5.696e-06	1535
bin	5.7672e-06	1251
bin	5.8384e-06	1317
bin	5.9096e-06	1206
bin	5.9808e-06	1228
bin	6.052e-06	991
bin	6.1232e-06	1059
bin	6.1944e-06	974
bin	6.2656e-06	852
bin	6.3368e-06	878
bin	6.408e-06	899
bin	6.4792e-06	790
bin	6.5504e-06	583
bin	6.6216e-06	693
bin	6.6928e-06	623
bin	6.764e-06	690
bin	6.8352e-06	479
bin	6.9064e-06	663
bin	6.9776e-06	505
bin	7.0488e-06	465
bin	7.12e-06	498
bin	7.1912e-06	503
bin	7.2624e-06	441
bin	7.3336e-06	342
bin	7.4048e-06	427
bin	7.476e-06	404
bin	7.5472e-06	406
bin	7.6184e-06	304
bin	7.6896e-06	451
bin	7.7608e-06	331
bin	7.832e-06	292
bin	7.9032e-06	299
bin	7.9744e-06	408
bin	8.0456e-06	309
bin	8.1168e-06	256
bin	8.188e-06	290
bin	8.2592e-06	330
bin	8.3304e-06	294
bin	8.4016e-06	201
bin	8.4728e-06	307
bin	8.544e-06	209
bin	8.6152e-06	201
bin	8.6864e-06	179
bin	8.7576e-06	277
bin	8.8288e-06	160
bin	8.9e-06	168
bin	8.9712e-06	156
bin	9.0424e-06	237
bin	9.1136e-06	156
bin	9.1848e-06	97
bin	9.256e-06	198
bin	9.3272e-06	151
bin	9.3984e-06	110
bin	9.4696e-06	109
bin	9.5408e-06	200
bin	9.612e-06	104
bin	9.6832e-06	96
bin	9.7544e-06	96
bin	9.8256e-06	190
bin	9.8968e-06	106
bin	9.968e-06	82
bin	1.00392e-05	151
bin	1.01104e-05	104
bin	1.01816e-05	81
bin	1.02528e-05	81
bin	1.0324e-05	171
bin	1.03952e-05	63
bin	1.04664e-05	59
bin	1.05376e-05	66
bin	1.06088e-05	148
bin	1.068e-05	62
bin	1.07512e-05	53
bin	1.08224e-05	109
bin	1.08936e-05	74
bin	1.09648e-05	45
bin	1.1036e-05	52
bin	1.11072e-05	140
bin	1.11784e-05	44
bin	1.12496e-05	38
bin	1.13208e-05	45
bin	1.1392e-05	133
bin	1.14632e-05	43
bin	1.15344e-05	31
bin	1.16056e-05	98
bin	1.16768e-05	84
bin	1.1748e-05	25
bin	1.18192e-05	47
bin	1.18904e-05	106
bin	1.19616e-05	40
bin	1.20328e-05	30
bin	1.2104e-05	30
bin	1.21752e-05	100
bin	1.22464e-05	40
bin	1.23176e-05	38
bin	1.23888e-05	71
bin	1.246e-05	65
bin	1.25312e-05	31
bin	1.26024e-05	39
bin	1.26736e-05	125
bin	1.27448e-05	36
bin	1.2816e-05	31
bin	1.28872e-05	37
bin	1.29584e-05	106
bin	1.30296e-05	30
bin	1.31008e-05	30
bin	1.3172e-05	84
bin	1.32432e-05	63
bin	1.33144e-05	22
bin	1.33856e-05	23
bin	1.34568e-05	102
bin	1.3528e-05	34
bin	1.35992e-05	32
bin	1.36704e-05	34
bin	1.37416e-05	92
bin	1.38128e-05	20
bin	1.3884e-05	30
bin	1.39552e-05	59
bin	1.40264e-05	52
bin	1.40976e-05	26
bin	1.41688e-05	25
bin	1.424e-05	67
bin	1.43112e-05	17
bin	1.43824e-05	28
bin	1.44536e-05	15
bin	1.45248e-05	61
bin	1.4596e-05	10
bin	1.46672e-05	31
bin	1.47384e-05	42
bin	1.48096e-05	51
bin	1.48808e-05	20
bin	1.4952e-05	24
bin	1.50232e-05	55
bin	1.50944e-05	12
bin	1.51656e-05	31
bin	1.52368e-05	5
bin	1.5308e-05	52
bin	1.53792e-05	15
bin	1.54504e-05	17
bin	1.55216e-05	35
bin	1.55928e-05	24
bin	1.5664e-05	26
bin	1.57352e-05	10
bin	1.58064e-05	46
bin	1.58776e-05	6
bin	1.59488e-05	23
bin	1.602e-05	11
bin	1.60912e-05	44
bin	1.61624e-05	26
bin	1.62336e-05	12
bin	1.63048e-05	29
bin	1.6376e-05	16
bin	1.64472e-05	19
bin	1.65184e-05	6
bin	1.65896e-05	45
bin	1.66608e-05	10
bin	1.6732e-05	21
bin	1.68032e-05	19
bin	1.68744e-05	19
bin	1.69456e-05	18
bin	1.70168e-05	1
bin	1.7088e-05	22
bin	1.71592e-05	15
bin	1.72304e-05	16
bin	1.73016e-05	10
bin	1.73728e-05	27
bin	1.7444e-05	19
bin	1.75152e-05	3
bin	1.75864e-05	19
bin	1.76576e-05	18
bin	1.77288e-05	11
bin	1.78e-05	5
bin	1.78712e-05	14
bin	1.79424e-05	9
bin	1.80136e-05	9
bin	1.80848e-05	6
bin	1.8156e-05	13
bin	1.82272e-05	10
bin	1.82984e-05	4
bin	1.83696e-05	13
bin	1.84408e-05	14
bin	1.8512e-05	11
bin	1.85832e-05	3
bin	1.86544e-05	12
bin	1.87256e-05	8
bin	1.87968e-05	10
bin	1.8868e-05	4
bin	1.89392e-05	11
bin	1.90104e-05	7
bin	1.90816e-05	7
bin	1.91528e-05	2
bin	1.9224e-05	11
bin	1.92952e-05	6
bin	1.93664e-05	8
bin	1.94376e-05	12
bin	1.95088e-05	9
bin	1.958e-05	7
bin	1.96512e-05	4
bin	1.97224e-05	10
bin	1.97936e-05	3
bin	1.98648e-05	4
bin	1.9936e-05	5
bin	2.00072e-05	9
bin	2.00784e-05	1
bin	2.01496e-05	1
bin	2.02208e-05	5
bin	2.0292e-05	7
bin	2.03632e-05	2
bin	2.04344e-05	0
bin	2.05056e-05	3
bin	2.05768e-05	3
bin	2.0648e-05	4
bin	2.07192e-05	3
bin	2.07904e-05	6
bin	2.08616e-05	3
bin	2.09328e-05	3
bin	2.1004e-05	1
bin	2.10752e-05	2
bin	2.11464e-05	4
bin	2.12176e-05	4
bin	2.12888e-05	5
bin	2.136e-05	0
bin	2.14312e-05	1
bin	2.15024e-05	1
bin	2.15736e-05	1
bin	2.16448e-05	0
bin	2.1716e-05	0
bin	2.17872e-05	0
bin	2.18584e-05	3
bin	2.19296e-05	2
bin	2.20008e-05	1
bin	2.2072e-05	0
bin	2.21432e-05	0
bin	2.22144e-05	2
bin	2.22856e-05	2
bin	2.23568e-05	0
bin	2.2428e-05	0
bin	2.24992e-05	2
bin	2.25704e-05	2
bin	2.26416e-05	2
bin	2.27128e-05	2
bin	2.2784e-05	1
bin	2.28552e-05	1
bin	2.29264e-05	0
bin	2.29976e-05	1
bin	2.30688e-05	2
bin	2.314e-05	1
bin	2.32112e-05	2
bin	2.32824e-05	1
bin	2.33536e-05	0
bin	2.34248e-05	2
bin	2.3496e-05	1
bin	2.35672e-05	0
bin	2.36384e-05	0
bin	2.37096e-05	1
bin	2.37808e-05	1
bin	2.3852e-05	0
bin	2.39232e-05	0
bin	2.39944e-05	1
bin	2.40656e-05	1
bin	2.41368e-05	1
bin	2.4208e-05	1
bin	2.42792e-05	0
bin	2.43504e-05	2
bin	2.44216e-05	1
bin	2.44928e-05	0
bin	2.4564e-05	1
bin	2.46352e-05	0
bin	2.47064e-05	2
bin	2.47776e-05	0
bin	2.48488e-05	1
bin	2.492e-05	1
bin	2.49912e-05	0
bin	2.50624e-05	3
bin	2.51336e-05	0
bin	2.52048e-05	1
bin	2.5276e-05	0
bin	2.53472e-05	0
bin	2.54184e-05	1
bin	2.54896e-05	1
bin	2.55608e-05	0
bin	2.5632e-05	1
bin	2.57032e-05	2
bin	2.57744e-05	1
bin	2.58456e-05	2
bin	2.59168e-05	0
bin	2.5988e-05	4
bin	2.60592e-05	1
bin	2.61304e-05	0
bin	2.62016e-05	1
bin	2.62728e-05	1
bin	2.6344e-05	1
bin	2.64152e-05	1
bin	2.64864e-05	0
bin	2.65576e-05	0
bin	2.66288e-05	2
bin	2.67e-05	1
bin	2.67712e-05	0
bin	2.68424e-05	0
bin	2.69136e-05	1
bin	2.69848e-05	1
bin	2.7056e-05	1
bin	2.71272e-05	0
bin	2.71984e-05	0
bin	2.72696e-05	0
bin	2.73408e-05	1
bin	2.7412e-05	0
bin	2.74832e-05	0
bin	2.75544e-05	0
bin	2.76256e-05	0
bin	2.76968e-05	0
bin	2.7768e-05	0
bin	2.78392e-05	2
bin	2.79104e-05	1
bin	2.79816e-05	0
bin	2.80528e-05	1
bin	2.8124e-05	0
bin	2.81952e-05	0
bin	2.82664e-05	0
bin	2.83376e-05	1
bin	2.84088e-05	1
bin	2.848e-05	0
bin	2.85512e-05	0
bin	2.86224e-05	1
bin	2.86936e-05	0
bin	2.87648e-05	0
bin	2.8836e-05	2
bin	2.89072e-05	2
bin	2.89784e-05	1
bin	2.90496e-05	0
bin	2.91208e-05	0
bin	2.9192e-05	1
bin	2.92632e-05	0
bin	2.93344e-05	0
bin	2.94056e-05	0
bin	2.94768e-05	0
bin	2.9548e-05	0
bin	2.96192e-05	0
bin	2.96904e-05	1
bin	2.97616e-05	2
bin	2.98328e-05	1
bin	2.9904e-05	1
bin	2.99752e-05	1
bin	3.00464e-05	1
bin	3.01176e-05	1
bin	3.01888e-05	4
bin	3.026e-05	0
bin	3.03312e-05	1
bin	3.04024e-05	0
bin	3.04736e-05	1
bin	3.05448e-05	1
bin	3.0616e-05	1
bin	3.06872e-05	2
bin	3.07584e-05	1
bin	3.08296e-05	4
bin	3.09008e-05	4
bin	3.0972e-05	1
bin	3.10432e-05	0
bin	3.11144e-05	0
bin	3.11856e-05	0
bin	3.12568e-05	2
bin	3.1328e-05	1
bin	3.13992e-05	0
bin	3.14704e-05	0
bin	3.15416e-05	0
bin	3.16128e-05	0
bin	3.1684e-05	0
bin	3.17552e-05	0
bin	3.18264e-05	0
bin	3.18976e-05	0
bin	3.19688e-05	0
bin	3.204e-05	0
bin	3.21112e-05	0
bin	3.21824e-05	0
bin	3.22536e-05	0
bin	3.23248e-05	1
bin	3.2396e-05	1
bin	3.24672e-05	1
bin	3.25384e-05	3
bin	3.26096e-05	0
bin	3.26808e-05	0
bin	3.2752e-05	1
bin	3.28232e-05	0
bin	3.28944e-05	1
bin	3.29656e-05	0
bin	3.30368e-05	0
bin	3.3108e-05	0
bin	3.31792e-05	1
bin	3.32504e-05	0
bin	3.33216e-05	2
bin	3.33928e-05	2
bin	3.3464e-05	0
bin	3.35352e-05	1
bin	3.36064e-05	0
bin	3.36776e-05	0
bin	3.37488e-05	0
bin	3.382e-05	2
bin	3.38912e-05	0
bin	3.39624e-05	1
bin	3.40336e-05	0
bin	3.41048e-05	0
bin	3.4176e-05	0
bin	3.42472e-05	0
bin	3.43184e-05	0
bin	3.43896e-05	0
bin	3.44608e-05	0
bin	3.4532e-05	0
bin	3.46032e-05	1
bin	3.46744e-05	1
bin	3.47456e-05	0
bin	3.48168e-05	0
bin	3.4888e-05	0
bin	3.49592e-05	1
bin	3.50304e-05	0
bin	3.51016e-05	0
bin	3.51728e-05	0
bin	3.5244e-05	0
bin	3.53152e-05	0
bin	3.53864e-05	0
bin	3.54576e-05	0
bin	3.55288e-05	0
bin	3.56e-05	80
statistic Torus3d_bub.timer 	"Life Times"
field count 6291456
field mean 2.1813038137215e-05
field stddev 8.9836940587704e-06
field sum 137.23576966661
field sqrsum 0.0035012920196047
field min 7.33331349e-07
field max 0.001330566666663
bin	-INF	0
bin	0	125
bin	8.544e-07	3651
bin	1.7088e-06	12005
bin	2.5632e-06	25313
bin	3.4176e-06	39217
bin	4.272e-06	51412
bin	5.1264e-06	63143
bin	5.9808e-06	72156
bin	6.8352e-06	82743
bin	7.6896e-06	92134
bin	8.544e-06	102326
bin	9.3984e-06	113670
bin	1.02528e-05	121238
bin	1.11072e-05	125300
bin	1.19616e-05	132239
bin	1.2816e-05	140341
bin	1.36704e-05	147087
bin	1.45248e-05	155688
bin	1.53792e-05	164134
bin	1.62336e-05	173886
bin	1.7088e-05	186072
bin	1.79424e-05	195968
bin	1.87968e-05	208190
bin	1.96512e-05	219282
bin	2.05056e-05	233549
bin	2.136e-05	246791
bin	2.22144e-05	256950
bin	2.30688e-05	264862
bin	2.39232e-05	267204
bin	2.47776e-05	264951
bin	2.5632e-05	257021
bin	2.64864e-05	243488
bin	2.73408e-05	226100
bin	2.81952e-05	206950
bin	2.90496e-05	186035
bin	2.9904e-05	165141
bin	3.07584e-05	145253
bin	3.16128e-05	125441
bin	3.24672e-05	107340
bin	3.33216e-05	90774
bin	3.4176e-05	74634
bin	3.50304e-05	61369
bin	3.58848e-05	49673
bin	3.67392e-05	40163
bin	3.75936e-05	31980
bin	3.8448e-05	25905
bin	3.93024e-05	20163
bin	4.01568e-05	15669
bin	4.10112e-05	12377
bin	4.18656e-05	8862
bin	4.272e-05	6605
bin	4.35744e-05	4885
bin	4.44288e-05	3589
bin	4.52832e-05	2834
bin	4.61376e-05	2078
bin	4.6992e-05	1615
bin	4.78464e-05	1290
bin	4.87008e-05	1123
bin	4.95552e-05	891
bin	5.04096e-05	721
bin	5.1264e-05	646
bin	5.21184e-05	508
bin	5.29728e-05	455
bin	5.38272e-05	397
bin	5.46816e-05	412
bin	5.5536e-05	376
bin	5.63904e-05	325
bin	5.72448e-05	293
bin	5.80992e-05	271
bin	5.89536e-05	260
bin	5.9808e-05	233
bin	6.06624e-05	226
bin	6.15168e-05	192
bin	6.23712e-05	160
bin	6.32256e-05	158
bin	6.408e-05	157
bin	6.49344e-05	141
bin	6.57888e-05	139
bin	6.66432e-05	121
bin	6.74976e-05	125
bin	6.8352e-05	148
bin	6.92064e-05	137
bin	7.00608e-05	127
bin	7.09152e-05	115
bin	7.17696e-05	129
bin	7.2624e-05	117
bin	7.34784e-05	135
bin	7.43328e-05	102
bin	7.51872e-05	97
bin	7.60416e-05	96
bin	7.6896e-05	108
bin	7.77504e-05	108
bin	7.86048e-05	90
bin	7.94592e-05	76
bin	8.03136e-05	89
bin	8.1168e-05	82
bin	8.20224e-05	58
bin	8.28768e-05	63
bin	8.37312e-05	64
bin	8.45856e-05	56
bin	8.544e-05	58
bin	8.62944e-05	59
bin	8.71488e-05	61
bin	8.80032e-05	57
bin	8.88576e-05	35
bin	8.9712e-05	44
bin	9.05664e-05	33
bin	9.14208e-05	39
bin	9.22752e-05	44
bin	9.31296e-05	34
bin	9.3984e-05	49
bin	9.48384e-05	40
bin	9.56928e-05	36
bin	9.65472e-05	38
bin	9.74016e-05	39
bin	9.8256e-05	30
bin	9.91104e-05	26
bin	9.99648e-05	20
bin	0.0001008192	28
bin	0.0001016736	26
bin	0.000102528	23
bin	0.0001033824	26
bin	0.0001042368	27
bin	0.0001050912	31
bin	0.0001059456	24
bin	0.0001068	28
bin	0.0001076544	25
bin	0.0001085088	23
bin	0.0001093632	29
bin	0.0001102176	21
bin	0.000111072	18
bin	0.0001119264	16
bin	0.0001127808	15
bin	0.0001136352	16
bin	0.0001144896	18
bin	0.000115344	19
bin	0.0001161984	24
bin	0.0001170528	20
bin	0.0001179072	24
bin	0.0001187616	20
bin	0.000119616	19
bin	0.0001204704	14
bin	0.0001213248	21
bin	0.0001221792	15
bin	0.0001230336	17
bin	0.000123888	14
bin	0.0001247424	13
bin	0.0001255968	9
bin	0.0001264512	17
bin	0.0001273056	17
bin	0.00012816	12
bin	0.0001290144	9
bin	0.0001298688	10
bin	0.0001307232	10
bin	0.0001315776	13
bin	0.000132432	11
bin	0.0001332864	8
bin	0.0001341408	8
bin	0.0001349952	17
bin	0.0001358496	6
bin	0.000136704	6
bin	0.0001375584	4
bin	0.0001384128	12
bin	0.0001392672	8
bin	0.0001401216	11
bin	0.000140976	9
bin	0.0001418304	8
bin	0.0001426848	8
bin	0.0001435392	2
bin	0.0001443936	7
bin	0.000145248	4
bin	0.0001461024	13
bin	0.0001469568	16
bin	0.0001478112	14
bin	0.0001486656	11
bin	0.00014952	7
bin	0.0001503744	15
bin	0.0001512288	9
bin	0.0001520832	8
bin	0.0001529376	4
bin	0.000153792	11
bin	0.0001546464	12
bin	0.0001555008	8
bin	0.0001563552	11
bin	0.0001572096	11
bin	0.000158064	13
bin	0.0001589184	9
bin	0.0001597728	5
bin	0.0001606272	7
bin	0.0001614816	7
bin	0.000162336	4
bin	0.0001631904	2
bin	0.0001640448	6
bin	0.0001648992	7
bin	0.0001657536	6
bin	0.000166608	9
bin	0.0001674624	9
bin	0.0001683168	10
bin	0.0001691712	5
bin	0.0001700256	3
bin	0.00017088	5
bin	0.0001717344	2
bin	0.0001725888	0
bin	0.0001734432	4
bin	0.0001742976	4
bin	0.000175152	6
bin	0.0001760064	3
bin	0.0001768608	3
bin	0.0001777152	6
bin	0.0001785696	2
bin	0.000179424	3
bin	0.0001802784	1
bin	0.0001811328	1
bin	0.0001819872	2
bin	0.0001828416	2
bin	0.000183696	6
bin	0.0001845504	7
bin	0.0001854048	7
bin	0.0001862592	6
bin	0.0001871136	5
bin	0.000187968	6
bin	0.0001888224	5
bin	0.0001896768	2
bin	0.0001905312	8
bin	0.0001913856	6
bin	0.00019224	6
bin	0.0001930944	1
bin	0.0001939488	4
bin	0.0001948032	7
bin	0.0001956576	4
bin	0.000196512	2
bin	0.0001973664	2
bin	0.0001982208	5
bin	0.0001990752	7
bin	0.0001999296	6
bin	0.000200784	2
bin	0.0002016384	1
bin	0.0002024928	3
bin	0.0002033472	4
bin	0.0002042016	2
bin	0.000205056	1
bin	0.0002059104	0
bin	0.0002067648	0
bin	0.0002076192	4
bin	0.0002084736	1
bin	0.000209328	2
bin	0.0002101824	2
bin	0.0002110368	11
bin	0.0002118912	4
bin	0.0002127456	4
bin	0.0002136	2
bin	0.0002144544	8
bin	0.0002153088	5
bin	0.0002161632	4
bin	0.0002170176	2
bin	0.000217872	0
bin	0.0002187264	5
bin	0.0002195808	7
bin	0.0002204352	3
bin	0.0002212896	0
bin	0.000222144	5
bin	0.0002229984	2
bin	0.0002238528	0
bin	0.0002247072	1
bin	0.0002255616	5
bin	0.000226416	7
bin	0.0002272704	1
bin	0.0002281248	1
bin	0.0002289792	4
bin	0.0002298336	1
bin	0.000230688	2
bin	0.0002315424	3
bin	0.0002323968	4
bin	0.0002332512	9
bin	0.0002341056	3
bin	0.00023496	5
bin	0.0002358144	6
bin	0.0002366688	7
bin	0.0002375232	2
bin	0.0002383776	2
bin	0.000239232	4
bin	0.0002400864	8
bin	0.0002409408	4
bin	0.0002417952	3
bin	0.0002426496	2
bin	0.000243504	0
bin	0.0002443584	2
bin	0.0002452128	1
bin	0.0002460672	1
bin	0.0002469216	1
bin	0.000247776	0
bin	0.0002486304	1
bin	0.0002494848	1
bin	0.0002503392	1
bin	0.0002511936	0
bin	0.000252048	1
bin	0.0002529024	0
bin	0.0002537568	1
bin	0.0002546112	0
bin	0.0002554656	1
bin	0.00025632	1
bin	0.0002571744	1
bin	0.0002580288	0
bin	0.0002588832	1
bin	0.0002597376	2
bin	0.000260592	0
bin	0.0002614464	0
bin	0.0002623008	1
bin	0.0002631552	1
bin	0.0002640096	0
bin	0.000264864	1
bin	0.0002657184	1
bin	0.0002665728	2
bin	0.0002674272	2
bin	0.0002682816	1
bin	0.000269136	0
bin	0.0002699904	0
bin	0.0002708448	5
bin	0.0002716992	1
bin	0.0002725536	0
bin	0.000273408	1
bin	0.0002742624	0
bin	0.0002751168	0
bin	0.0002759712	1
bin	0.0002768256	2
bin	0.00027768	0
bin	0.0002785344	1
bin	0.0002793888	0
bin	0.0002802432	0
bin	0.0002810976	1
bin	0.000281952	0
bin	0.0002828064	0
bin	0.0002836608	0
bin	0.0002845152	0
bin	0.0002853696	0
bin	0.000286224	1
bin	0.0002870784	0
bin	0.0002879328	0
bin	0.0002887872	0
bin	0.0002896416	1
bin	0.000290496	1
bin	0.0002913504	2
bin	0.0002922048	2
bin	0.0002930592	2
bin	0.0002939136	2
bin	0.000294768	1
bin	0.0002956224	0
bin	0.0002964768	2
bin	0.0002973312	0
bin	0.0002981856	2
bin	0.00029904	0
bin	0.0002998944	1
bin	0.0003007488	2
bin	0.0003016032	1
bin	0.0003024576	1
bin	0.000303312	0
bin	0.0003041664	1
bin	0.0003050208	0
bin	0.0003058752	1
bin	0.0003067296	1
bin	0.000307584	0
bin	0.0003084384	0
bin	0.0003092928	3
bin	0.0003101472	1
bin	0.0003110016	0
bin	0.000311856	1
bin	0.0003127104	0
bin	0.0003135648	0
bin	0.0003144192	1
bin	0.0003152736	0
bin	0.000316128	0
bin	0.0003169824	0
bin	0.0003178368	0
bin	0.0003186912	0
bin	0.0003195456	0
bin	0.0003204	0
bin	0.0003212544	0
bin	0.0003221088	0
bin	0.0003229632	0
bin	0.0003238176	0
bin	0.000324672	0
bin	0.0003255264	0
bin	0.0003263808	1
bin	0.0003272352	1
bin	0.0003280896	1
bin	0.000328944	2
bin	0.0003297984	2
bin	0.0003306528	2
bin	0.0003315072	1
bin	0.0003323616	2
bin	0.000333216	0
bin	0.0003340704	0
bin	0.0003349248	0
bin	0.0003357792	0
bin	0.0003366336	1
bin	0.000337488	0
bin	0.0003383424	1
bin	0.0003391968	0
bin	0.0003400512	1
bin	0.0003409056	1
bin	0.00034176	0
bin	0.0003426144	0
bin	0.0003434688	0
bin	0.0003443232	0
bin	0.0003451776	1
bin	0.000346032	1
bin	0.0003468864	3
bin	0.0003477408	1
bin	0.0003485952	0
bin	0.0003494496	0
bin	0.000350304	1
bin	0.0003511584	0
bin	0.0003520128	0
bin	0.0003528672	0
bin	0.0003537216	0
bin	0.000354576	0
bin	0.0003554304	0
bin	0.0003562848	0
bin	0.0003571392	0
bin	0.0003579936	0
bin	0.000358848	0
bin	0.0003597024	0
bin	0.0003605568	0
bin	0.0003614112	0
bin	0.0003622656	0
bin	0.00036312	0
bin	0.0003639744	0
bin	0.0003648288	0
bin	0.0003656832	0
bin	0.0003665376	0
bin	0.000367392	1
bin	0.0003682464	0
bin	0.0003691008	0
bin	0.0003699552	0
bin	0.0003708096	0
bin	0.000371664	0
bin	0.0003725184	0
bin	0.0003733728	0
bin	0.0003742272	0
bin	0.0003750816	0
bin	0.000375936	0
bin	0.0003767904	0
bin	0.0003776448	0
bin	0.0003784992	0
bin	0.0003793536	0
bin	0.000380208	0
bin	0.0003810624	0
bin	0.0003819168	0
bin	0.0003827712	0
bin	0.0003836256	0
bin	0.00038448	0
bin	0.0003853344	0
bin	0.0003861888	2
bin	0.0003870432	0
bin	0.0003878976	1
bin	0.000388752	2
bin	0.0003896064	0
bin	0.0003904608	0
bin	0.0003913152	0
bin	0.0003921696	0
bin	0.000393024	0
bin	0.0003938784	0
bin	0.0003947328	0
bin	0.0003955872	0
bin	0.0003964416	0
bin	0.000397296	0
bin	0.0003981504	0
bin	0.0003990048	0
bin	0.0003998592	0
bin	0.0004007136	0
bin	0.000401568	0
bin	0.0004024224	0
bin	0.0004032768	0
bin	0.0004041312	0
bin	0.0004049856	0
bin	0.00040584	0
bin	0.0004066944	0
bin	0.0004075488	0
bin	0.0004084032	0
bin	0.0004092576	0
bin	0.000410112	0
bin	0.0004109664	0
bin	0.0004118208	0
bin	0.0004126752	0
bin	0.0004135296	0
bin	0.000414384	0
bin	0.0004152384	0
bin	0.0004160928	0
bin	0.0004169472	0
bin	0.0004178016	0
bin	0.000418656	0
bin	0.0004195104	0
bin	0.0004203648	0
bin	0.0004212192	0
bin	0.0004220736	0
bin	0.000422928	0
bin	0.0004237824	0
bin	0.0004246368	0
bin	0.0004254912	0
bin	0.0004263456	0
bin	0.0004272	24
