version 2
run Permutation-76-20120711-02:01:13-28228
attr alg 0
attr buf 8
attr configname Permutation
attr datetime 20120711-02:01:13
attr delta 1
attr experiment Permutation
attr ext false
attr inifile altro.ini
attr iterationvars "$buf=8, $ext=false, $ofedge=2, $delta=1, $alg=0"
attr iterationvars2 "$buf=8, $ext=false, $ofedge=2, $delta=1, $alg=0, $repetition=0"
attr measurement "$buf=8, $ext=false, $ofedge=2, $delta=1, $alg=0"
attr network Torus3d_bub
attr ofedge 2
attr processid 28228
attr repetition 0
attr replication #0
attr resultdir altro-results
attr runnumber 76
attr seedset 76

scalar . 	alg 	0
scalar . 	buf 	8
scalar . 	delta 	1
scalar . 	ofedge 	2
scalar Torus3d_bub.timer 	#endTime 	0.002814788999997
scalar Torus3d_bub.timer 	#totalHops 	76339200
scalar Torus3d_bub.timer 	#totalPacks 	6291456
scalar Torus3d_bub.timer 	#totalDerouted 	0
scalar Torus3d_bub.timer 	#totalOutFlanked 	0
scalar Torus3d_bub.timer 	#totalCQRed 	0
scalar Torus3d_bub.timer 	#LB 	0.000786432
scalar Torus3d_bub.timer 	#ratio 	0.27939287811656
statistic Torus3d_bub.timer 	"Hop Times"
field count 6291456
field mean 7.2086266581354e-05
field stddev 7.7034391767084e-05
field sum 453.52757440086
field sqrsum 0.070028475402015
field min 3.80142857e-07
field max 0.001815891333026
bin	-INF	0
bin	0	0
bin	7.12e-08	0
bin	1.424e-07	0
bin	2.136e-07	0
bin	2.848e-07	0
bin	3.56e-07	199
bin	4.272e-07	1270
bin	4.984e-07	3451
bin	5.696e-07	5312
bin	6.408e-07	7398
bin	7.12e-07	9363
bin	7.832e-07	11420
bin	8.544e-07	13151
bin	9.256e-07	14940
bin	9.968e-07	16760
bin	1.068e-06	18136
bin	1.1392e-06	19758
bin	1.2104e-06	21600
bin	1.2816e-06	23631
bin	1.3528e-06	25621
bin	1.424e-06	27621
bin	1.4952e-06	29411
bin	1.5664e-06	31632
bin	1.6376e-06	32963
bin	1.7088e-06	33871
bin	1.78e-06	34333
bin	1.8512e-06	34119
bin	1.9224e-06	33721
bin	1.9936e-06	33012
bin	2.0648e-06	32217
bin	2.136e-06	31244
bin	2.2072e-06	29865
bin	2.2784e-06	28393
bin	2.3496e-06	27099
bin	2.4208e-06	25772
bin	2.492e-06	24337
bin	2.5632e-06	22996
bin	2.6344e-06	21832
bin	2.7056e-06	20707
bin	2.7768e-06	19636
bin	2.848e-06	18642
bin	2.9192e-06	17508
bin	2.9904e-06	16811
bin	3.0616e-06	15813
bin	3.1328e-06	15109
bin	3.204e-06	14641
bin	3.2752e-06	13932
bin	3.3464e-06	13304
bin	3.4176e-06	12703
bin	3.4888e-06	12372
bin	3.56e-06	12090
bin	3.6312e-06	11640
bin	3.7024e-06	11306
bin	3.7736e-06	10886
bin	3.8448e-06	10512
bin	3.916e-06	10164
bin	3.9872e-06	9826
bin	4.0584e-06	9473
bin	4.1296e-06	9506
bin	4.2008e-06	8948
bin	4.272e-06	8819
bin	4.3432e-06	8798
bin	4.4144e-06	8489
bin	4.4856e-06	8298
bin	4.5568e-06	8218
bin	4.628e-06	7905
bin	4.6992e-06	7801
bin	4.7704e-06	7762
bin	4.8416e-06	7336
bin	4.9128e-06	7233
bin	4.984e-06	7045
bin	5.0552e-06	7093
bin	5.1264e-06	7039
bin	5.1976e-06	6817
bin	5.2688e-06	6726
bin	5.34e-06	6688
bin	5.4112e-06	6503
bin	5.4824e-06	6338
bin	5.5536e-06	6292
bin	5.6248e-06	6304
bin	5.696e-06	6253
bin	5.7672e-06	6185
bin	5.8384e-06	6170
bin	5.9096e-06	6087
bin	5.9808e-06	5974
bin	6.052e-06	5951
bin	6.1232e-06	5946
bin	6.1944e-06	5944
bin	6.2656e-06	5786
bin	6.3368e-06	5712
bin	6.408e-06	5716
bin	6.4792e-06	5735
bin	6.5504e-06	5586
bin	6.6216e-06	5445
bin	6.6928e-06	5345
bin	6.764e-06	5359
bin	6.8352e-06	5356
bin	6.9064e-06	5319
bin	6.9776e-06	5399
bin	7.0488e-06	5059
bin	7.12e-06	5134
bin	7.1912e-06	5130
bin	7.2624e-06	4947
bin	7.3336e-06	4904
bin	7.4048e-06	4906
bin	7.476e-06	4909
bin	7.5472e-06	4790
bin	7.6184e-06	4801
bin	7.6896e-06	4835
bin	7.7608e-06	4762
bin	7.832e-06	4607
bin	7.9032e-06	4502
bin	7.9744e-06	4571
bin	8.0456e-06	4542
bin	8.1168e-06	4574
bin	8.188e-06	4485
bin	8.2592e-06	4441
bin	8.3304e-06	4462
bin	8.4016e-06	4449
bin	8.4728e-06	4243
bin	8.544e-06	4286
bin	8.6152e-06	4193
bin	8.6864e-06	4137
bin	8.7576e-06	4090
bin	8.8288e-06	4101
bin	8.9e-06	4180
bin	8.9712e-06	4144
bin	9.0424e-06	4003
bin	9.1136e-06	4046
bin	9.1848e-06	3896
bin	9.256e-06	4053
bin	9.3272e-06	3967
bin	9.3984e-06	3830
bin	9.4696e-06	3835
bin	9.5408e-06	3872
bin	9.612e-06	3751
bin	9.6832e-06	3843
bin	9.7544e-06	3721
bin	9.8256e-06	3691
bin	9.8968e-06	3659
bin	9.968e-06	3788
bin	1.00392e-05	3732
bin	1.01104e-05	3712
bin	1.01816e-05	3735
bin	1.02528e-05	3760
bin	1.0324e-05	3554
bin	1.03952e-05	3555
bin	1.04664e-05	3499
bin	1.05376e-05	3631
bin	1.06088e-05	3485
bin	1.068e-05	3469
bin	1.07512e-05	3443
bin	1.08224e-05	3411
bin	1.08936e-05	3369
bin	1.09648e-05	3480
bin	1.1036e-05	3535
bin	1.11072e-05	3472
bin	1.11784e-05	3588
bin	1.12496e-05	3500
bin	1.13208e-05	3549
bin	1.1392e-05	3515
bin	1.14632e-05	3353
bin	1.15344e-05	3338
bin	1.16056e-05	3446
bin	1.16768e-05	3386
bin	1.1748e-05	3316
bin	1.18192e-05	3392
bin	1.18904e-05	3333
bin	1.19616e-05	3312
bin	1.20328e-05	3337
bin	1.2104e-05	3363
bin	1.21752e-05	3254
bin	1.22464e-05	3342
bin	1.23176e-05	3247
bin	1.23888e-05	3332
bin	1.246e-05	3309
bin	1.25312e-05	3411
bin	1.26024e-05	3375
bin	1.26736e-05	3262
bin	1.27448e-05	3275
bin	1.2816e-05	3254
bin	1.28872e-05	3277
bin	1.29584e-05	3242
bin	1.30296e-05	3273
bin	1.31008e-05	3251
bin	1.3172e-05	3123
bin	1.32432e-05	3141
bin	1.33144e-05	3149
bin	1.33856e-05	3114
bin	1.34568e-05	3076
bin	1.3528e-05	3097
bin	1.35992e-05	3062
bin	1.36704e-05	3082
bin	1.37416e-05	3041
bin	1.38128e-05	2993
bin	1.3884e-05	2980
bin	1.39552e-05	2908
bin	1.40264e-05	2948
bin	1.40976e-05	2976
bin	1.41688e-05	2941
bin	1.424e-05	2950
bin	1.43112e-05	2966
bin	1.43824e-05	2967
bin	1.44536e-05	2956
bin	1.45248e-05	2992
bin	1.4596e-05	3000
bin	1.46672e-05	2930
bin	1.47384e-05	2952
bin	1.48096e-05	2951
bin	1.48808e-05	2908
bin	1.4952e-05	2873
bin	1.50232e-05	2886
bin	1.50944e-05	2902
bin	1.51656e-05	2876
bin	1.52368e-05	2994
bin	1.5308e-05	2958
bin	1.53792e-05	2831
bin	1.54504e-05	2862
bin	1.55216e-05	2886
bin	1.55928e-05	2869
bin	1.5664e-05	2845
bin	1.57352e-05	2779
bin	1.58064e-05	2733
bin	1.58776e-05	2819
bin	1.59488e-05	2850
bin	1.602e-05	2769
bin	1.60912e-05	2802
bin	1.61624e-05	2693
bin	1.62336e-05	2741
bin	1.63048e-05	2734
bin	1.6376e-05	2612
bin	1.64472e-05	2662
bin	1.65184e-05	2624
bin	1.65896e-05	2589
bin	1.66608e-05	2616
bin	1.6732e-05	2660
bin	1.68032e-05	2551
bin	1.68744e-05	2525
bin	1.69456e-05	2608
bin	1.70168e-05	2605
bin	1.7088e-05	2605
bin	1.71592e-05	2592
bin	1.72304e-05	2553
bin	1.73016e-05	2539
bin	1.73728e-05	2549
bin	1.7444e-05	2499
bin	1.75152e-05	2530
bin	1.75864e-05	2522
bin	1.76576e-05	2496
bin	1.77288e-05	2576
bin	1.78e-05	2474
bin	1.78712e-05	2545
bin	1.79424e-05	2518
bin	1.80136e-05	2410
bin	1.80848e-05	2486
bin	1.8156e-05	2504
bin	1.82272e-05	2450
bin	1.82984e-05	2466
bin	1.83696e-05	2463
bin	1.84408e-05	2492
bin	1.8512e-05	2512
bin	1.85832e-05	2392
bin	1.86544e-05	2435
bin	1.87256e-05	2479
bin	1.87968e-05	2491
bin	1.8868e-05	2366
bin	1.89392e-05	2374
bin	1.90104e-05	2296
bin	1.90816e-05	2396
bin	1.91528e-05	2366
bin	1.9224e-05	2349
bin	1.92952e-05	2420
bin	1.93664e-05	2409
bin	1.94376e-05	2420
bin	1.95088e-05	2437
bin	1.958e-05	2401
bin	1.96512e-05	2371
bin	1.97224e-05	2414
bin	1.97936e-05	2286
bin	1.98648e-05	2454
bin	1.9936e-05	2456
bin	2.00072e-05	2418
bin	2.00784e-05	2417
bin	2.01496e-05	2365
bin	2.02208e-05	2425
bin	2.0292e-05	2337
bin	2.03632e-05	2309
bin	2.04344e-05	2259
bin	2.05056e-05	2278
bin	2.05768e-05	2330
bin	2.0648e-05	2311
bin	2.07192e-05	2309
bin	2.07904e-05	2293
bin	2.08616e-05	2338
bin	2.09328e-05	2286
bin	2.1004e-05	2410
bin	2.10752e-05	2434
bin	2.11464e-05	2346
bin	2.12176e-05	2319
bin	2.12888e-05	2377
bin	2.136e-05	2345
bin	2.14312e-05	2286
bin	2.15024e-05	2276
bin	2.15736e-05	2268
bin	2.16448e-05	2320
bin	2.1716e-05	2248
bin	2.17872e-05	2241
bin	2.18584e-05	2260
bin	2.19296e-05	2247
bin	2.20008e-05	2212
bin	2.2072e-05	2261
bin	2.21432e-05	2281
bin	2.22144e-05	2281
bin	2.22856e-05	2411
bin	2.23568e-05	2340
bin	2.2428e-05	2336
bin	2.24992e-05	2324
bin	2.25704e-05	2349
bin	2.26416e-05	2365
bin	2.27128e-05	2286
bin	2.2784e-05	2330
bin	2.28552e-05	2288
bin	2.29264e-05	2363
bin	2.29976e-05	2323
bin	2.30688e-05	2257
bin	2.314e-05	2248
bin	2.32112e-05	2320
bin	2.32824e-05	2265
bin	2.33536e-05	2265
bin	2.34248e-05	2300
bin	2.3496e-05	2204
bin	2.35672e-05	2143
bin	2.36384e-05	2197
bin	2.37096e-05	2207
bin	2.37808e-05	2200
bin	2.3852e-05	2143
bin	2.39232e-05	2135
bin	2.39944e-05	2066
bin	2.40656e-05	2120
bin	2.41368e-05	2159
bin	2.4208e-05	2055
bin	2.42792e-05	2195
bin	2.43504e-05	2146
bin	2.44216e-05	2187
bin	2.44928e-05	2261
bin	2.4564e-05	2275
bin	2.46352e-05	2251
bin	2.47064e-05	2264
bin	2.47776e-05	2198
bin	2.48488e-05	2225
bin	2.492e-05	2120
bin	2.49912e-05	2112
bin	2.50624e-05	2169
bin	2.51336e-05	2194
bin	2.52048e-05	2148
bin	2.5276e-05	2147
bin	2.53472e-05	2114
bin	2.54184e-05	2129
bin	2.54896e-05	2121
bin	2.55608e-05	2053
bin	2.5632e-05	2058
bin	2.57032e-05	2042
bin	2.57744e-05	2029
bin	2.58456e-05	2047
bin	2.59168e-05	2035
bin	2.5988e-05	1978
bin	2.60592e-05	2079
bin	2.61304e-05	2124
bin	2.62016e-05	2099
bin	2.62728e-05	2091
bin	2.6344e-05	2155
bin	2.64152e-05	2117
bin	2.64864e-05	2137
bin	2.65576e-05	2111
bin	2.66288e-05	2157
bin	2.67e-05	2085
bin	2.67712e-05	2113
bin	2.68424e-05	2068
bin	2.69136e-05	2094
bin	2.69848e-05	2047
bin	2.7056e-05	2046
bin	2.71272e-05	2093
bin	2.71984e-05	2042
bin	2.72696e-05	2137
bin	2.73408e-05	2157
bin	2.7412e-05	2130
bin	2.74832e-05	2134
bin	2.75544e-05	2148
bin	2.76256e-05	2068
bin	2.76968e-05	2141
bin	2.7768e-05	2111
bin	2.78392e-05	2207
bin	2.79104e-05	2145
bin	2.79816e-05	2161
bin	2.80528e-05	2180
bin	2.8124e-05	2090
bin	2.81952e-05	2098
bin	2.82664e-05	2142
bin	2.83376e-05	2172
bin	2.84088e-05	2144
bin	2.848e-05	2162
bin	2.85512e-05	2156
bin	2.86224e-05	2215
bin	2.86936e-05	2127
bin	2.87648e-05	2045
bin	2.8836e-05	2157
bin	2.89072e-05	2186
bin	2.89784e-05	2210
bin	2.90496e-05	2280
bin	2.91208e-05	2153
bin	2.9192e-05	2106
bin	2.92632e-05	2125
bin	2.93344e-05	2126
bin	2.94056e-05	2168
bin	2.94768e-05	2176
bin	2.9548e-05	2177
bin	2.96192e-05	2217
bin	2.96904e-05	2196
bin	2.97616e-05	2188
bin	2.98328e-05	2207
bin	2.9904e-05	2145
bin	2.99752e-05	2201
bin	3.00464e-05	2104
bin	3.01176e-05	2156
bin	3.01888e-05	2174
bin	3.026e-05	2225
bin	3.03312e-05	2119
bin	3.04024e-05	2129
bin	3.04736e-05	2178
bin	3.05448e-05	2194
bin	3.0616e-05	2216
bin	3.06872e-05	2118
bin	3.07584e-05	2219
bin	3.08296e-05	2220
bin	3.09008e-05	2193
bin	3.0972e-05	2172
bin	3.10432e-05	2154
bin	3.11144e-05	2182
bin	3.11856e-05	2122
bin	3.12568e-05	2120
bin	3.1328e-05	2125
bin	3.13992e-05	2096
bin	3.14704e-05	2217
bin	3.15416e-05	2130
bin	3.16128e-05	2199
bin	3.1684e-05	2094
bin	3.17552e-05	2187
bin	3.18264e-05	2249
bin	3.18976e-05	2223
bin	3.19688e-05	2285
bin	3.204e-05	2306
bin	3.21112e-05	2270
bin	3.21824e-05	2269
bin	3.22536e-05	2179
bin	3.23248e-05	2193
bin	3.2396e-05	2293
bin	3.24672e-05	2190
bin	3.25384e-05	2215
bin	3.26096e-05	2094
bin	3.26808e-05	2177
bin	3.2752e-05	2092
bin	3.28232e-05	2123
bin	3.28944e-05	2112
bin	3.29656e-05	2110
bin	3.30368e-05	2134
bin	3.3108e-05	2113
bin	3.31792e-05	2122
bin	3.32504e-05	2161
bin	3.33216e-05	2068
bin	3.33928e-05	2133
bin	3.3464e-05	2112
bin	3.35352e-05	2164
bin	3.36064e-05	2160
bin	3.36776e-05	2107
bin	3.37488e-05	2124
bin	3.382e-05	2166
bin	3.38912e-05	2167
bin	3.39624e-05	2186
bin	3.40336e-05	2253
bin	3.41048e-05	2101
bin	3.4176e-05	2152
bin	3.42472e-05	2025
bin	3.43184e-05	2182
bin	3.43896e-05	2200
bin	3.44608e-05	2181
bin	3.4532e-05	2289
bin	3.46032e-05	2126
bin	3.46744e-05	2213
bin	3.47456e-05	2181
bin	3.48168e-05	2100
bin	3.4888e-05	2122
bin	3.49592e-05	2271
bin	3.50304e-05	2211
bin	3.51016e-05	2166
bin	3.51728e-05	2184
bin	3.5244e-05	2185
bin	3.53152e-05	2169
bin	3.53864e-05	2128
bin	3.54576e-05	2115
bin	3.55288e-05	2189
bin	3.56e-05	3941731
statistic Torus3d_bub.timer 	"Life Times"
field count 6291456
field mean 0.00077542295330045
field stddev 0.00060421343141985
field sum 4878.5393920798
field sqrsum 6.0797772524353
field min 5.2e-07
field max 0.002808989999997
bin	-INF	0
bin	0	32
bin	8.544e-07	692
bin	1.7088e-06	2093
bin	2.5632e-06	3708
bin	3.4176e-06	5429
bin	4.272e-06	7309
bin	5.1264e-06	9250
bin	5.9808e-06	11158
bin	6.8352e-06	12969
bin	7.6896e-06	14834
bin	8.544e-06	16581
bin	9.3984e-06	18338
bin	1.02528e-05	19940
bin	1.11072e-05	21403
bin	1.19616e-05	22676
bin	1.2816e-05	23877
bin	1.36704e-05	24895
bin	1.45248e-05	25912
bin	1.53792e-05	26632
bin	1.62336e-05	27201
bin	1.7088e-05	28084
bin	1.79424e-05	28395
bin	1.87968e-05	29084
bin	1.96512e-05	29520
bin	2.05056e-05	30225
bin	2.136e-05	30903
bin	2.22144e-05	31568
bin	2.30688e-05	31403
bin	2.39232e-05	31893
bin	2.47776e-05	31542
bin	2.5632e-05	30456
bin	2.64864e-05	29098
bin	2.73408e-05	27545
bin	2.81952e-05	26062
bin	2.90496e-05	24660
bin	2.9904e-05	23124
bin	3.07584e-05	21784
bin	3.16128e-05	20113
bin	3.24672e-05	18743
bin	3.33216e-05	17605
bin	3.4176e-05	16398
bin	3.50304e-05	15257
bin	3.58848e-05	14304
bin	3.67392e-05	13544
bin	3.75936e-05	12795
bin	3.8448e-05	12036
bin	3.93024e-05	11584
bin	4.01568e-05	11038
bin	4.10112e-05	10746
bin	4.18656e-05	10607
bin	4.272e-05	10362
bin	4.35744e-05	9963
bin	4.44288e-05	9817
bin	4.52832e-05	9630
bin	4.61376e-05	9648
bin	4.6992e-05	9335
bin	4.78464e-05	9199
bin	4.87008e-05	9147
bin	4.95552e-05	9146
bin	5.04096e-05	8960
bin	5.1264e-05	8738
bin	5.21184e-05	8607
bin	5.29728e-05	8483
bin	5.38272e-05	8301
bin	5.46816e-05	7915
bin	5.5536e-05	7843
bin	5.63904e-05	7519
bin	5.72448e-05	7494
bin	5.80992e-05	7185
bin	5.89536e-05	6964
bin	5.9808e-05	6827
bin	6.06624e-05	6704
bin	6.15168e-05	6590
bin	6.23712e-05	6417
bin	6.32256e-05	6151
bin	6.408e-05	6052
bin	6.49344e-05	5932
bin	6.57888e-05	6047
bin	6.66432e-05	5812
bin	6.74976e-05	5783
bin	6.8352e-05	5814
bin	6.92064e-05	5838
bin	7.00608e-05	5744
bin	7.09152e-05	5695
bin	7.17696e-05	5873
bin	7.2624e-05	5839
bin	7.34784e-05	5908
bin	7.43328e-05	5967
bin	7.51872e-05	5989
bin	7.60416e-05	5806
bin	7.6896e-05	5860
bin	7.77504e-05	5748
bin	7.86048e-05	5665
bin	7.94592e-05	5441
bin	8.03136e-05	5456
bin	8.1168e-05	5536
bin	8.20224e-05	5224
bin	8.28768e-05	5264
bin	8.37312e-05	5031
bin	8.45856e-05	5030
bin	8.544e-05	4846
bin	8.62944e-05	4711
bin	8.71488e-05	4566
bin	8.80032e-05	4608
bin	8.88576e-05	4453
bin	8.9712e-05	4531
bin	9.05664e-05	4468
bin	9.14208e-05	4408
bin	9.22752e-05	4376
bin	9.31296e-05	4453
bin	9.3984e-05	4361
bin	9.48384e-05	4365
bin	9.56928e-05	4402
bin	9.65472e-05	4490
bin	9.74016e-05	4575
bin	9.8256e-05	4557
bin	9.91104e-05	4474
bin	9.99648e-05	4557
bin	0.0001008192	4521
bin	0.0001016736	4464
bin	0.000102528	4482
bin	0.0001033824	4311
bin	0.0001042368	4371
bin	0.0001050912	4372
bin	0.0001059456	4068
bin	0.0001068	4188
bin	0.0001076544	4062
bin	0.0001085088	3935
bin	0.0001093632	3773
bin	0.0001102176	3875
bin	0.000111072	3805
bin	0.0001119264	3740
bin	0.0001127808	3656
bin	0.0001136352	3630
bin	0.0001144896	3597
bin	0.000115344	3557
bin	0.0001161984	3636
bin	0.0001170528	3499
bin	0.0001179072	3417
bin	0.0001187616	3433
bin	0.000119616	3477
bin	0.0001204704	3501
bin	0.0001213248	3547
bin	0.0001221792	3594
bin	0.0001230336	3584
bin	0.000123888	3579
bin	0.0001247424	3609
bin	0.0001255968	3419
bin	0.0001264512	3561
bin	0.0001273056	3571
bin	0.00012816	3556
bin	0.0001290144	3442
bin	0.0001298688	3475
bin	0.0001307232	3456
bin	0.0001315776	3353
bin	0.000132432	3364
bin	0.0001332864	3293
bin	0.0001341408	3224
bin	0.0001349952	3140
bin	0.0001358496	3091
bin	0.000136704	3099
bin	0.0001375584	3052
bin	0.0001384128	3034
bin	0.0001392672	2870
bin	0.0001401216	2926
bin	0.000140976	3053
bin	0.0001418304	2989
bin	0.0001426848	3050
bin	0.0001435392	3046
bin	0.0001443936	3020
bin	0.000145248	3069
bin	0.0001461024	3076
bin	0.0001469568	3190
bin	0.0001478112	3182
bin	0.0001486656	3242
bin	0.00014952	3146
bin	0.0001503744	3220
bin	0.0001512288	3131
bin	0.0001520832	3075
bin	0.0001529376	3081
bin	0.000153792	3129
bin	0.0001546464	3106
bin	0.0001555008	3003
bin	0.0001563552	2989
bin	0.0001572096	2941
bin	0.000158064	2827
bin	0.0001589184	2841
bin	0.0001597728	2849
bin	0.0001606272	2798
bin	0.0001614816	2819
bin	0.000162336	2761
bin	0.0001631904	2850
bin	0.0001640448	2812
bin	0.0001648992	2791
bin	0.0001657536	2837
bin	0.000166608	2796
bin	0.0001674624	2730
bin	0.0001683168	2861
bin	0.0001691712	2721
bin	0.0001700256	2896
bin	0.00017088	2968
bin	0.0001717344	2871
bin	0.0001725888	2882
bin	0.0001734432	2941
bin	0.0001742976	2939
bin	0.000175152	3035
bin	0.0001760064	2977
bin	0.0001768608	2938
bin	0.0001777152	2889
bin	0.0001785696	2880
bin	0.000179424	2794
bin	0.0001802784	2687
bin	0.0001811328	2793
bin	0.0001819872	2707
bin	0.0001828416	2620
bin	0.000183696	2572
bin	0.0001845504	2597
bin	0.0001854048	2558
bin	0.0001862592	2550
bin	0.0001871136	2488
bin	0.000187968	2453
bin	0.0001888224	2506
bin	0.0001896768	2580
bin	0.0001905312	2459
bin	0.0001913856	2603
bin	0.00019224	2580
bin	0.0001930944	2620
bin	0.0001939488	2616
bin	0.0001948032	2661
bin	0.0001956576	2538
bin	0.000196512	2546
bin	0.0001973664	2577
bin	0.0001982208	2655
bin	0.0001990752	2643
bin	0.0001999296	2649
bin	0.000200784	2719
bin	0.0002016384	2655
bin	0.0002024928	2585
bin	0.0002033472	2553
bin	0.0002042016	2665
bin	0.000205056	2607
bin	0.0002059104	2734
bin	0.0002067648	2587
bin	0.0002076192	2555
bin	0.0002084736	2534
bin	0.000209328	2461
bin	0.0002101824	2437
bin	0.0002110368	2490
bin	0.0002118912	2540
bin	0.0002127456	2478
bin	0.0002136	2432
bin	0.0002144544	2406
bin	0.0002153088	2443
bin	0.0002161632	2448
bin	0.0002170176	2536
bin	0.000217872	2483
bin	0.0002187264	2523
bin	0.0002195808	2543
bin	0.0002204352	2640
bin	0.0002212896	2668
bin	0.000222144	2731
bin	0.0002229984	2585
bin	0.0002238528	2599
bin	0.0002247072	2646
bin	0.0002255616	2555
bin	0.000226416	2571
bin	0.0002272704	2564
bin	0.0002281248	2588
bin	0.0002289792	2564
bin	0.0002298336	2467
bin	0.000230688	2474
bin	0.0002315424	2572
bin	0.0002323968	2466
bin	0.0002332512	2408
bin	0.0002341056	2479
bin	0.00023496	2429
bin	0.0002358144	2441
bin	0.0002366688	2453
bin	0.0002375232	2436
bin	0.0002383776	2418
bin	0.000239232	2390
bin	0.0002400864	2398
bin	0.0002409408	2332
bin	0.0002417952	2271
bin	0.0002426496	2353
bin	0.000243504	2345
bin	0.0002443584	2457
bin	0.0002452128	2434
bin	0.0002460672	2472
bin	0.0002469216	2496
bin	0.000247776	2501
bin	0.0002486304	2524
bin	0.0002494848	2465
bin	0.0002503392	2502
bin	0.0002511936	2385
bin	0.000252048	2430
bin	0.0002529024	2424
bin	0.0002537568	2346
bin	0.0002546112	2281
bin	0.0002554656	2297
bin	0.00025632	2306
bin	0.0002571744	2327
bin	0.0002580288	2236
bin	0.0002588832	2210
bin	0.0002597376	2300
bin	0.000260592	2276
bin	0.0002614464	2229
bin	0.0002623008	2204
bin	0.0002631552	2227
bin	0.0002640096	2269
bin	0.000264864	2198
bin	0.0002657184	2237
bin	0.0002665728	2296
bin	0.0002674272	2334
bin	0.0002682816	2314
bin	0.000269136	2345
bin	0.0002699904	2226
bin	0.0002708448	2360
bin	0.0002716992	2312
bin	0.0002725536	2290
bin	0.000273408	2272
bin	0.0002742624	2288
bin	0.0002751168	2331
bin	0.0002759712	2303
bin	0.0002768256	2343
bin	0.00027768	2293
bin	0.0002785344	2299
bin	0.0002793888	2300
bin	0.0002802432	2301
bin	0.0002810976	2223
bin	0.000281952	2188
bin	0.0002828064	2142
bin	0.0002836608	2136
bin	0.0002845152	2097
bin	0.0002853696	2167
bin	0.000286224	2102
bin	0.0002870784	2122
bin	0.0002879328	2072
bin	0.0002887872	2169
bin	0.0002896416	2077
bin	0.000290496	2097
bin	0.0002913504	2069
bin	0.0002922048	2048
bin	0.0002930592	2054
bin	0.0002939136	2094
bin	0.000294768	2163
bin	0.0002956224	2138
bin	0.0002964768	2162
bin	0.0002973312	2120
bin	0.0002981856	2180
bin	0.00029904	2146
bin	0.0002998944	2201
bin	0.0003007488	2154
bin	0.0003016032	2191
bin	0.0003024576	2187
bin	0.000303312	2123
bin	0.0003041664	2078
bin	0.0003050208	2053
bin	0.0003058752	2119
bin	0.0003067296	2062
bin	0.000307584	2033
bin	0.0003084384	2063
bin	0.0003092928	1894
bin	0.0003101472	2026
bin	0.0003110016	1970
bin	0.000311856	1951
bin	0.0003127104	1856
bin	0.0003135648	1948
bin	0.0003144192	1941
bin	0.0003152736	1954
bin	0.000316128	2012
bin	0.0003169824	1993
bin	0.0003178368	1984
bin	0.0003186912	1999
bin	0.0003195456	2038
bin	0.0003204	2023
bin	0.0003212544	2098
bin	0.0003221088	2095
bin	0.0003229632	2100
bin	0.0003238176	2062
bin	0.000324672	2048
bin	0.0003255264	2045
bin	0.0003263808	2056
bin	0.0003272352	2002
bin	0.0003280896	2006
bin	0.000328944	1983
bin	0.0003297984	2074
bin	0.0003306528	2074
bin	0.0003315072	2057
bin	0.0003323616	1951
bin	0.000333216	1935
bin	0.0003340704	1921
bin	0.0003349248	1896
bin	0.0003357792	1908
bin	0.0003366336	1936
bin	0.000337488	1918
bin	0.0003383424	1979
bin	0.0003391968	1998
bin	0.0003400512	2008
bin	0.0003409056	1921
bin	0.00034176	1968
bin	0.0003426144	1968
bin	0.0003434688	2089
bin	0.0003443232	2079
bin	0.0003451776	2144
bin	0.000346032	2134
bin	0.0003468864	2077
bin	0.0003477408	2089
bin	0.0003485952	2132
bin	0.0003494496	2100
bin	0.000350304	2097
bin	0.0003511584	2139
bin	0.0003520128	2093
bin	0.0003528672	2077
bin	0.0003537216	2070
bin	0.000354576	2037
bin	0.0003554304	2020
bin	0.0003562848	2032
bin	0.0003571392	1990
bin	0.0003579936	2091
bin	0.000358848	2059
bin	0.0003597024	2021
bin	0.0003605568	2139
bin	0.0003614112	2027
bin	0.0003622656	2055
bin	0.00036312	1912
bin	0.0003639744	1903
bin	0.0003648288	1960
bin	0.0003656832	2049
bin	0.0003665376	2074
bin	0.000367392	2022
bin	0.0003682464	2063
bin	0.0003691008	1964
bin	0.0003699552	2028
bin	0.0003708096	2029
bin	0.000371664	2085
bin	0.0003725184	2116
bin	0.0003733728	2162
bin	0.0003742272	2009
bin	0.0003750816	1999
bin	0.000375936	1978
bin	0.0003767904	1986
bin	0.0003776448	1995
bin	0.0003784992	1926
bin	0.0003793536	2001
bin	0.000380208	1928
bin	0.0003810624	1872
bin	0.0003819168	1920
bin	0.0003827712	1860
bin	0.0003836256	1877
bin	0.00038448	1901
bin	0.0003853344	1837
bin	0.0003861888	1843
bin	0.0003870432	1889
bin	0.0003878976	1892
bin	0.000388752	1928
bin	0.0003896064	1916
bin	0.0003904608	2004
bin	0.0003913152	2051
bin	0.0003921696	2085
bin	0.000393024	2008
bin	0.0003938784	2057
bin	0.0003947328	2053
bin	0.0003955872	2029
bin	0.0003964416	1973
bin	0.000397296	2013
bin	0.0003981504	2054
bin	0.0003990048	2001
bin	0.0003998592	2039
bin	0.0004007136	2009
bin	0.000401568	1936
bin	0.0004024224	1970
bin	0.0004032768	1949
bin	0.0004041312	1951
bin	0.0004049856	2010
bin	0.00040584	1998
bin	0.0004066944	2004
bin	0.0004075488	1966
bin	0.0004084032	1889
bin	0.0004092576	1888
bin	0.000410112	1944
bin	0.0004109664	1928
bin	0.0004118208	1934
bin	0.0004126752	1929
bin	0.0004135296	1952
bin	0.000414384	1873
bin	0.0004152384	1916
bin	0.0004160928	1956
bin	0.0004169472	1898
bin	0.0004178016	1934
bin	0.000418656	1991
bin	0.0004195104	2051
bin	0.0004203648	2018
bin	0.0004212192	2024
bin	0.0004220736	2030
bin	0.000422928	1970
bin	0.0004237824	1996
bin	0.0004246368	1939
bin	0.0004254912	1982
bin	0.0004263456	1975
bin	0.0004272	3953388
