version 2
run Permutation-56-20120711-00:14:26-28151
attr alg 0
attr buf 8
attr configname Permutation
attr datetime 20120711-00:14:26
attr delta 1
attr experiment Permutation
attr ext false
attr inifile altro.ini
attr iterationvars "$buf=8, $ext=false, $ofedge=1, $delta=1, $alg=0"
attr iterationvars2 "$buf=8, $ext=false, $ofedge=1, $delta=1, $alg=0, $repetition=0"
attr measurement "$buf=8, $ext=false, $ofedge=1, $delta=1, $alg=0"
attr network Torus3d_bub
attr ofedge 1
attr processid 28151
attr repetition 0
attr replication #0
attr resultdir altro-results
attr runnumber 56
attr seedset 56

scalar . 	alg 	0
scalar . 	buf 	8
scalar . 	delta 	1
scalar . 	ofedge 	1
scalar Torus3d_bub.timer 	#endTime 	0.002841699
scalar Torus3d_bub.timer 	#totalHops 	76339200
scalar Torus3d_bub.timer 	#totalPacks 	6291456
scalar Torus3d_bub.timer 	#totalDerouted 	0
scalar Torus3d_bub.timer 	#totalOutFlanked 	0
scalar Torus3d_bub.timer 	#totalCQRed 	0
scalar Torus3d_bub.timer 	#LB 	0.000786432
scalar Torus3d_bub.timer 	#ratio 	0.27674711501816
statistic Torus3d_bub.timer 	"Hop Times"
field count 6291456
field mean 7.0974345853913e-05
field stddev 7.3561192813601e-05
field sum 446.53197406867
field sqrsum 0.065736944894329
field min 3.80142857e-07
field max 0.00141765
bin	-INF	0
bin	0	0
bin	7.12e-08	0
bin	1.424e-07	0
bin	2.136e-07	0
bin	2.848e-07	0
bin	3.56e-07	195
bin	4.272e-07	1215
bin	4.984e-07	3426
bin	5.696e-07	5365
bin	6.408e-07	7444
bin	7.12e-07	9320
bin	7.832e-07	11225
bin	8.544e-07	12836
bin	9.256e-07	14725
bin	9.968e-07	16378
bin	1.068e-06	18084
bin	1.1392e-06	19602
bin	1.2104e-06	21345
bin	1.2816e-06	23723
bin	1.3528e-06	25460
bin	1.424e-06	27657
bin	1.4952e-06	29268
bin	1.5664e-06	31210
bin	1.6376e-06	32374
bin	1.7088e-06	33512
bin	1.78e-06	33783
bin	1.8512e-06	33850
bin	1.9224e-06	33146
bin	1.9936e-06	32673
bin	2.0648e-06	31941
bin	2.136e-06	30528
bin	2.2072e-06	29414
bin	2.2784e-06	27823
bin	2.3496e-06	26447
bin	2.4208e-06	25357
bin	2.492e-06	23831
bin	2.5632e-06	22655
bin	2.6344e-06	21567
bin	2.7056e-06	20439
bin	2.7768e-06	19465
bin	2.848e-06	18441
bin	2.9192e-06	17810
bin	2.9904e-06	16769
bin	3.0616e-06	15580
bin	3.1328e-06	15293
bin	3.204e-06	14203
bin	3.2752e-06	13898
bin	3.3464e-06	13152
bin	3.4176e-06	12776
bin	3.4888e-06	12300
bin	3.56e-06	11925
bin	3.6312e-06	11272
bin	3.7024e-06	10900
bin	3.7736e-06	10744
bin	3.8448e-06	10348
bin	3.916e-06	10025
bin	3.9872e-06	9740
bin	4.0584e-06	9354
bin	4.1296e-06	9120
bin	4.2008e-06	8908
bin	4.272e-06	8722
bin	4.3432e-06	8615
bin	4.4144e-06	8275
bin	4.4856e-06	8169
bin	4.5568e-06	8124
bin	4.628e-06	7868
bin	4.6992e-06	7754
bin	4.7704e-06	7426
bin	4.8416e-06	7199
bin	4.9128e-06	7031
bin	4.984e-06	7059
bin	5.0552e-06	6836
bin	5.1264e-06	6619
bin	5.1976e-06	6648
bin	5.2688e-06	6593
bin	5.34e-06	6491
bin	5.4112e-06	6411
bin	5.4824e-06	6315
bin	5.5536e-06	6255
bin	5.6248e-06	6143
bin	5.696e-06	6105
bin	5.7672e-06	6004
bin	5.8384e-06	5871
bin	5.9096e-06	5931
bin	5.9808e-06	5631
bin	6.052e-06	5801
bin	6.1232e-06	5575
bin	6.1944e-06	5635
bin	6.2656e-06	5498
bin	6.3368e-06	5497
bin	6.408e-06	5417
bin	6.4792e-06	5498
bin	6.5504e-06	5485
bin	6.6216e-06	5445
bin	6.6928e-06	5413
bin	6.764e-06	5376
bin	6.8352e-06	5313
bin	6.9064e-06	5247
bin	6.9776e-06	5098
bin	7.0488e-06	5132
bin	7.12e-06	5059
bin	7.1912e-06	5102
bin	7.2624e-06	5053
bin	7.3336e-06	4972
bin	7.4048e-06	5191
bin	7.476e-06	4908
bin	7.5472e-06	4891
bin	7.6184e-06	4951
bin	7.6896e-06	4936
bin	7.7608e-06	5080
bin	7.832e-06	4823
bin	7.9032e-06	4866
bin	7.9744e-06	4790
bin	8.0456e-06	4723
bin	8.1168e-06	4695
bin	8.188e-06	4726
bin	8.2592e-06	4683
bin	8.3304e-06	4627
bin	8.4016e-06	4487
bin	8.4728e-06	4548
bin	8.544e-06	4601
bin	8.6152e-06	4603
bin	8.6864e-06	4524
bin	8.7576e-06	4614
bin	8.8288e-06	4514
bin	8.9e-06	4512
bin	8.9712e-06	4502
bin	9.0424e-06	4470
bin	9.1136e-06	4522
bin	9.1848e-06	4445
bin	9.256e-06	4499
bin	9.3272e-06	4422
bin	9.3984e-06	4329
bin	9.4696e-06	4435
bin	9.5408e-06	4368
bin	9.612e-06	4289
bin	9.6832e-06	4300
bin	9.7544e-06	4232
bin	9.8256e-06	4259
bin	9.8968e-06	4255
bin	9.968e-06	4119
bin	1.00392e-05	4187
bin	1.01104e-05	4195
bin	1.01816e-05	4203
bin	1.02528e-05	4144
bin	1.0324e-05	4055
bin	1.03952e-05	3959
bin	1.04664e-05	3914
bin	1.05376e-05	3918
bin	1.06088e-05	3945
bin	1.068e-05	4010
bin	1.07512e-05	3975
bin	1.08224e-05	3840
bin	1.08936e-05	3931
bin	1.09648e-05	3845
bin	1.1036e-05	3904
bin	1.11072e-05	3893
bin	1.11784e-05	3787
bin	1.12496e-05	3790
bin	1.13208e-05	3797
bin	1.1392e-05	3934
bin	1.14632e-05	3736
bin	1.15344e-05	3808
bin	1.16056e-05	3768
bin	1.16768e-05	3817
bin	1.1748e-05	3688
bin	1.18192e-05	3618
bin	1.18904e-05	3708
bin	1.19616e-05	3656
bin	1.20328e-05	3650
bin	1.2104e-05	3659
bin	1.21752e-05	3687
bin	1.22464e-05	3595
bin	1.23176e-05	3655
bin	1.23888e-05	3591
bin	1.246e-05	3575
bin	1.25312e-05	3487
bin	1.26024e-05	3517
bin	1.26736e-05	3471
bin	1.27448e-05	3449
bin	1.2816e-05	3420
bin	1.28872e-05	3299
bin	1.29584e-05	3356
bin	1.30296e-05	3262
bin	1.31008e-05	3387
bin	1.3172e-05	3337
bin	1.32432e-05	3326
bin	1.33144e-05	3352
bin	1.33856e-05	3293
bin	1.34568e-05	3351
bin	1.3528e-05	3356
bin	1.35992e-05	3281
bin	1.36704e-05	3293
bin	1.37416e-05	3215
bin	1.38128e-05	3224
bin	1.3884e-05	3182
bin	1.39552e-05	3247
bin	1.40264e-05	3133
bin	1.40976e-05	3211
bin	1.41688e-05	3168
bin	1.424e-05	3140
bin	1.43112e-05	3152
bin	1.43824e-05	3079
bin	1.44536e-05	3115
bin	1.45248e-05	3102
bin	1.4596e-05	3088
bin	1.46672e-05	3086
bin	1.47384e-05	3083
bin	1.48096e-05	3117
bin	1.48808e-05	3102
bin	1.4952e-05	3124
bin	1.50232e-05	3133
bin	1.50944e-05	3074
bin	1.51656e-05	3089
bin	1.52368e-05	3092
bin	1.5308e-05	3093
bin	1.53792e-05	3084
bin	1.54504e-05	3010
bin	1.55216e-05	2935
bin	1.55928e-05	3022
bin	1.5664e-05	2988
bin	1.57352e-05	3026
bin	1.58064e-05	2955
bin	1.58776e-05	2933
bin	1.59488e-05	2949
bin	1.602e-05	2853
bin	1.60912e-05	2897
bin	1.61624e-05	2950
bin	1.62336e-05	3033
bin	1.63048e-05	2941
bin	1.6376e-05	3047
bin	1.64472e-05	2946
bin	1.65184e-05	2999
bin	1.65896e-05	2970
bin	1.66608e-05	3015
bin	1.6732e-05	2889
bin	1.68032e-05	2875
bin	1.68744e-05	2959
bin	1.69456e-05	2795
bin	1.70168e-05	2868
bin	1.7088e-05	2856
bin	1.71592e-05	2773
bin	1.72304e-05	2738
bin	1.73016e-05	2711
bin	1.73728e-05	2776
bin	1.7444e-05	2711
bin	1.75152e-05	2713
bin	1.75864e-05	2805
bin	1.76576e-05	2797
bin	1.77288e-05	2767
bin	1.78e-05	2807
bin	1.78712e-05	2783
bin	1.79424e-05	2865
bin	1.80136e-05	2821
bin	1.80848e-05	2758
bin	1.8156e-05	2719
bin	1.82272e-05	2744
bin	1.82984e-05	2709
bin	1.83696e-05	2727
bin	1.84408e-05	2672
bin	1.8512e-05	2627
bin	1.85832e-05	2732
bin	1.86544e-05	2625
bin	1.87256e-05	2549
bin	1.87968e-05	2620
bin	1.8868e-05	2597
bin	1.89392e-05	2664
bin	1.90104e-05	2564
bin	1.90816e-05	2595
bin	1.91528e-05	2624
bin	1.9224e-05	2567
bin	1.92952e-05	2540
bin	1.93664e-05	2521
bin	1.94376e-05	2481
bin	1.95088e-05	2523
bin	1.958e-05	2545
bin	1.96512e-05	2470
bin	1.97224e-05	2545
bin	1.97936e-05	2489
bin	1.98648e-05	2596
bin	1.9936e-05	2535
bin	2.00072e-05	2498
bin	2.00784e-05	2439
bin	2.01496e-05	2544
bin	2.02208e-05	2500
bin	2.0292e-05	2497
bin	2.03632e-05	2465
bin	2.04344e-05	2448
bin	2.05056e-05	2491
bin	2.05768e-05	2473
bin	2.0648e-05	2407
bin	2.07192e-05	2377
bin	2.07904e-05	2359
bin	2.08616e-05	2484
bin	2.09328e-05	2426
bin	2.1004e-05	2402
bin	2.10752e-05	2433
bin	2.11464e-05	2394
bin	2.12176e-05	2333
bin	2.12888e-05	2362
bin	2.136e-05	2422
bin	2.14312e-05	2424
bin	2.15024e-05	2357
bin	2.15736e-05	2294
bin	2.16448e-05	2317
bin	2.1716e-05	2338
bin	2.17872e-05	2265
bin	2.18584e-05	2328
bin	2.19296e-05	2389
bin	2.20008e-05	2426
bin	2.2072e-05	2273
bin	2.21432e-05	2332
bin	2.22144e-05	2304
bin	2.22856e-05	2316
bin	2.23568e-05	2304
bin	2.2428e-05	2305
bin	2.24992e-05	2224
bin	2.25704e-05	2202
bin	2.26416e-05	2363
bin	2.27128e-05	2356
bin	2.2784e-05	2339
bin	2.28552e-05	2465
bin	2.29264e-05	2468
bin	2.29976e-05	2358
bin	2.30688e-05	2358
bin	2.314e-05	2335
bin	2.32112e-05	2348
bin	2.32824e-05	2310
bin	2.33536e-05	2277
bin	2.34248e-05	2311
bin	2.3496e-05	2276
bin	2.35672e-05	2235
bin	2.36384e-05	2221
bin	2.37096e-05	2106
bin	2.37808e-05	2131
bin	2.3852e-05	2204
bin	2.39232e-05	2194
bin	2.39944e-05	2130
bin	2.40656e-05	2143
bin	2.41368e-05	2251
bin	2.4208e-05	2226
bin	2.42792e-05	2177
bin	2.43504e-05	2193
bin	2.44216e-05	2227
bin	2.44928e-05	2227
bin	2.4564e-05	2200
bin	2.46352e-05	2291
bin	2.47064e-05	2350
bin	2.47776e-05	2280
bin	2.48488e-05	2291
bin	2.492e-05	2300
bin	2.49912e-05	2211
bin	2.50624e-05	2261
bin	2.51336e-05	2308
bin	2.52048e-05	2274
bin	2.5276e-05	2234
bin	2.53472e-05	2201
bin	2.54184e-05	2180
bin	2.54896e-05	2163
bin	2.55608e-05	2171
bin	2.5632e-05	2172
bin	2.57032e-05	2188
bin	2.57744e-05	2104
bin	2.58456e-05	2115
bin	2.59168e-05	2037
bin	2.5988e-05	2087
bin	2.60592e-05	2074
bin	2.61304e-05	2118
bin	2.62016e-05	2123
bin	2.62728e-05	2105
bin	2.6344e-05	2133
bin	2.64152e-05	2148
bin	2.64864e-05	2094
bin	2.65576e-05	2000
bin	2.66288e-05	2080
bin	2.67e-05	2026
bin	2.67712e-05	2050
bin	2.68424e-05	2035
bin	2.69136e-05	2134
bin	2.69848e-05	2017
bin	2.7056e-05	1976
bin	2.71272e-05	1961
bin	2.71984e-05	2072
bin	2.72696e-05	2087
bin	2.73408e-05	2035
bin	2.7412e-05	2087
bin	2.74832e-05	2064
bin	2.75544e-05	2123
bin	2.76256e-05	2112
bin	2.76968e-05	2103
bin	2.7768e-05	2204
bin	2.78392e-05	2063
bin	2.79104e-05	2075
bin	2.79816e-05	2049
bin	2.80528e-05	2049
bin	2.8124e-05	2051
bin	2.81952e-05	2089
bin	2.82664e-05	2045
bin	2.83376e-05	2069
bin	2.84088e-05	2103
bin	2.848e-05	2182
bin	2.85512e-05	2076
bin	2.86224e-05	2095
bin	2.86936e-05	2073
bin	2.87648e-05	1998
bin	2.8836e-05	2029
bin	2.89072e-05	2026
bin	2.89784e-05	2005
bin	2.90496e-05	2064
bin	2.91208e-05	2087
bin	2.9192e-05	2106
bin	2.92632e-05	2167
bin	2.93344e-05	2122
bin	2.94056e-05	2140
bin	2.94768e-05	2115
bin	2.9548e-05	2151
bin	2.96192e-05	2171
bin	2.96904e-05	2131
bin	2.97616e-05	2159
bin	2.98328e-05	2158
bin	2.9904e-05	2244
bin	2.99752e-05	2179
bin	3.00464e-05	2168
bin	3.01176e-05	2120
bin	3.01888e-05	2162
bin	3.026e-05	2229
bin	3.03312e-05	2170
bin	3.04024e-05	2204
bin	3.04736e-05	2219
bin	3.05448e-05	2271
bin	3.0616e-05	2249
bin	3.06872e-05	2210
bin	3.07584e-05	2201
bin	3.08296e-05	2214
bin	3.09008e-05	2143
bin	3.0972e-05	2128
bin	3.10432e-05	2187
bin	3.11144e-05	2170
bin	3.11856e-05	2134
bin	3.12568e-05	2119
bin	3.1328e-05	2114
bin	3.13992e-05	2121
bin	3.14704e-05	2072
bin	3.15416e-05	2115
bin	3.16128e-05	2059
bin	3.1684e-05	2094
bin	3.17552e-05	2099
bin	3.18264e-05	2119
bin	3.18976e-05	2028
bin	3.19688e-05	2043
bin	3.204e-05	2041
bin	3.21112e-05	2052
bin	3.21824e-05	2017
bin	3.22536e-05	2018
bin	3.23248e-05	2031
bin	3.2396e-05	2065
bin	3.24672e-05	2098
bin	3.25384e-05	2053
bin	3.26096e-05	2032
bin	3.26808e-05	1999
bin	3.2752e-05	2089
bin	3.28232e-05	2099
bin	3.28944e-05	2072
bin	3.29656e-05	2105
bin	3.30368e-05	2073
bin	3.3108e-05	2054
bin	3.31792e-05	2049
bin	3.32504e-05	2050
bin	3.33216e-05	2065
bin	3.33928e-05	2046
bin	3.3464e-05	2020
bin	3.35352e-05	1995
bin	3.36064e-05	1928
bin	3.36776e-05	1949
bin	3.37488e-05	1978
bin	3.382e-05	2006
bin	3.38912e-05	1963
bin	3.39624e-05	1996
bin	3.40336e-05	1957
bin	3.41048e-05	2009
bin	3.4176e-05	1943
bin	3.42472e-05	1991
bin	3.43184e-05	1961
bin	3.43896e-05	1990
bin	3.44608e-05	1958
bin	3.4532e-05	2007
bin	3.46032e-05	1951
bin	3.46744e-05	1940
bin	3.47456e-05	1964
bin	3.48168e-05	2019
bin	3.4888e-05	2023
bin	3.49592e-05	1975
bin	3.50304e-05	2028
bin	3.51016e-05	1959
bin	3.51728e-05	1970
bin	3.5244e-05	2025
bin	3.53152e-05	1939
bin	3.53864e-05	1991
bin	3.54576e-05	1998
bin	3.55288e-05	1960
bin	3.56e-05	3918748
statistic Torus3d_bub.timer 	"Life Times"
field count 6291456
field mean 0.00076860352543271
field stddev 0.00059750589179018
field sum 4835.6352617048
field sqrsum 5.9628193628449
field min 5.2e-07
field max 0.002835912
bin	-INF	0
bin	0	29
bin	8.544e-07	606
bin	1.7088e-06	1956
bin	2.5632e-06	3367
bin	3.4176e-06	5223
bin	4.272e-06	7028
bin	5.1264e-06	9023
bin	5.9808e-06	10870
bin	6.8352e-06	12752
bin	7.6896e-06	14394
bin	8.544e-06	16260
bin	9.3984e-06	18022
bin	1.02528e-05	19765
bin	1.11072e-05	21093
bin	1.19616e-05	22535
bin	1.2816e-05	23769
bin	1.36704e-05	24817
bin	1.45248e-05	25660
bin	1.53792e-05	26453
bin	1.62336e-05	27314
bin	1.7088e-05	27921
bin	1.79424e-05	28428
bin	1.87968e-05	28767
bin	1.96512e-05	29530
bin	2.05056e-05	30056
bin	2.136e-05	30556
bin	2.22144e-05	31053
bin	2.30688e-05	31843
bin	2.39232e-05	31577
bin	2.47776e-05	31247
bin	2.5632e-05	29996
bin	2.64864e-05	28581
bin	2.73408e-05	27262
bin	2.81952e-05	25637
bin	2.90496e-05	24364
bin	2.9904e-05	22733
bin	3.07584e-05	21447
bin	3.16128e-05	20029
bin	3.24672e-05	18606
bin	3.33216e-05	17343
bin	3.4176e-05	16139
bin	3.50304e-05	15034
bin	3.58848e-05	14170
bin	3.67392e-05	13386
bin	3.75936e-05	12821
bin	3.8448e-05	12156
bin	3.93024e-05	11716
bin	4.01568e-05	11060
bin	4.10112e-05	10774
bin	4.18656e-05	10426
bin	4.272e-05	10084
bin	4.35744e-05	9860
bin	4.44288e-05	9710
bin	4.52832e-05	9431
bin	4.61376e-05	9468
bin	4.6992e-05	9165
bin	4.78464e-05	9184
bin	4.87008e-05	9236
bin	4.95552e-05	9105
bin	5.04096e-05	8987
bin	5.1264e-05	8734
bin	5.21184e-05	8636
bin	5.29728e-05	8341
bin	5.38272e-05	8268
bin	5.46816e-05	7921
bin	5.5536e-05	7639
bin	5.63904e-05	7507
bin	5.72448e-05	7304
bin	5.80992e-05	7187
bin	5.89536e-05	6811
bin	5.9808e-05	6658
bin	6.06624e-05	6396
bin	6.15168e-05	6237
bin	6.23712e-05	6129
bin	6.32256e-05	5939
bin	6.408e-05	6107
bin	6.49344e-05	5904
bin	6.57888e-05	5790
bin	6.66432e-05	5688
bin	6.74976e-05	5704
bin	6.8352e-05	5602
bin	6.92064e-05	5492
bin	7.00608e-05	5651
bin	7.09152e-05	5632
bin	7.17696e-05	5590
bin	7.2624e-05	5579
bin	7.34784e-05	5676
bin	7.43328e-05	5635
bin	7.51872e-05	5482
bin	7.60416e-05	5469
bin	7.6896e-05	5579
bin	7.77504e-05	5545
bin	7.86048e-05	5577
bin	7.94592e-05	5417
bin	8.03136e-05	5435
bin	8.1168e-05	5419
bin	8.20224e-05	5288
bin	8.28768e-05	5205
bin	8.37312e-05	4958
bin	8.45856e-05	4903
bin	8.544e-05	4947
bin	8.62944e-05	4810
bin	8.71488e-05	4736
bin	8.80032e-05	4701
bin	8.88576e-05	4646
bin	8.9712e-05	4549
bin	9.05664e-05	4554
bin	9.14208e-05	4603
bin	9.22752e-05	4497
bin	9.31296e-05	4584
bin	9.3984e-05	4619
bin	9.48384e-05	4607
bin	9.56928e-05	4636
bin	9.65472e-05	4577
bin	9.74016e-05	4626
bin	9.8256e-05	4646
bin	9.91104e-05	4722
bin	9.99648e-05	4798
bin	0.0001008192	4727
bin	0.0001016736	4634
bin	0.000102528	4749
bin	0.0001033824	4792
bin	0.0001042368	4694
bin	0.0001050912	4526
bin	0.0001059456	4518
bin	0.0001068	4490
bin	0.0001076544	4421
bin	0.0001085088	4290
bin	0.0001093632	4254
bin	0.0001102176	4177
bin	0.000111072	4077
bin	0.0001119264	4077
bin	0.0001127808	4026
bin	0.0001136352	3981
bin	0.0001144896	3880
bin	0.000115344	3960
bin	0.0001161984	3921
bin	0.0001170528	3954
bin	0.0001179072	3958
bin	0.0001187616	3921
bin	0.000119616	4007
bin	0.0001204704	4065
bin	0.0001213248	4168
bin	0.0001221792	4255
bin	0.0001230336	4168
bin	0.000123888	4304
bin	0.0001247424	4186
bin	0.0001255968	4253
bin	0.0001264512	4326
bin	0.0001273056	4233
bin	0.00012816	4166
bin	0.0001290144	4146
bin	0.0001298688	4064
bin	0.0001307232	3986
bin	0.0001315776	3891
bin	0.000132432	3858
bin	0.0001332864	3753
bin	0.0001341408	3757
bin	0.0001349952	3563
bin	0.0001358496	3581
bin	0.000136704	3581
bin	0.0001375584	3498
bin	0.0001384128	3472
bin	0.0001392672	3472
bin	0.0001401216	3542
bin	0.000140976	3401
bin	0.0001418304	3437
bin	0.0001426848	3439
bin	0.0001435392	3501
bin	0.0001443936	3562
bin	0.000145248	3551
bin	0.0001461024	3645
bin	0.0001469568	3618
bin	0.0001478112	3663
bin	0.0001486656	3684
bin	0.00014952	3629
bin	0.0001503744	3727
bin	0.0001512288	3628
bin	0.0001520832	3656
bin	0.0001529376	3625
bin	0.000153792	3549
bin	0.0001546464	3405
bin	0.0001555008	3410
bin	0.0001563552	3251
bin	0.0001572096	3250
bin	0.000158064	3302
bin	0.0001589184	3216
bin	0.0001597728	3194
bin	0.0001606272	3075
bin	0.0001614816	3100
bin	0.000162336	3149
bin	0.0001631904	3095
bin	0.0001640448	3139
bin	0.0001648992	3147
bin	0.0001657536	3061
bin	0.000166608	3097
bin	0.0001674624	3168
bin	0.0001683168	3102
bin	0.0001691712	3056
bin	0.0001700256	3145
bin	0.00017088	3138
bin	0.0001717344	3141
bin	0.0001725888	3139
bin	0.0001734432	3104
bin	0.0001742976	3182
bin	0.000175152	3140
bin	0.0001760064	3141
bin	0.0001768608	3093
bin	0.0001777152	3070
bin	0.0001785696	3103
bin	0.000179424	3171
bin	0.0001802784	3082
bin	0.0001811328	3061
bin	0.0001819872	3115
bin	0.0001828416	3072
bin	0.000183696	2993
bin	0.0001845504	3010
bin	0.0001854048	2891
bin	0.0001862592	2763
bin	0.0001871136	2800
bin	0.000187968	2741
bin	0.0001888224	2783
bin	0.0001896768	2780
bin	0.0001905312	2847
bin	0.0001913856	2795
bin	0.00019224	2773
bin	0.0001930944	2835
bin	0.0001939488	2910
bin	0.0001948032	2871
bin	0.0001956576	2898
bin	0.000196512	2924
bin	0.0001973664	2951
bin	0.0001982208	3072
bin	0.0001990752	2994
bin	0.0001999296	3016
bin	0.000200784	2950
bin	0.0002016384	2879
bin	0.0002024928	2899
bin	0.0002033472	2909
bin	0.0002042016	2853
bin	0.000205056	2835
bin	0.0002059104	2720
bin	0.0002067648	2748
bin	0.0002076192	2676
bin	0.0002084736	2637
bin	0.000209328	2602
bin	0.0002101824	2624
bin	0.0002110368	2655
bin	0.0002118912	2633
bin	0.0002127456	2632
bin	0.0002136	2561
bin	0.0002144544	2572
bin	0.0002153088	2675
bin	0.0002161632	2620
bin	0.0002170176	2626
bin	0.000217872	2518
bin	0.0002187264	2701
bin	0.0002195808	2638
bin	0.0002204352	2697
bin	0.0002212896	2663
bin	0.000222144	2722
bin	0.0002229984	2648
bin	0.0002238528	2697
bin	0.0002247072	2638
bin	0.0002255616	2697
bin	0.000226416	2680
bin	0.0002272704	2639
bin	0.0002281248	2676
bin	0.0002289792	2668
bin	0.0002298336	2616
bin	0.000230688	2585
bin	0.0002315424	2502
bin	0.0002323968	2517
bin	0.0002332512	2473
bin	0.0002341056	2577
bin	0.00023496	2458
bin	0.0002358144	2387
bin	0.0002366688	2398
bin	0.0002375232	2426
bin	0.0002383776	2442
bin	0.000239232	2512
bin	0.0002400864	2522
bin	0.0002409408	2518
bin	0.0002417952	2627
bin	0.0002426496	2564
bin	0.000243504	2630
bin	0.0002443584	2649
bin	0.0002452128	2674
bin	0.0002460672	2715
bin	0.0002469216	2627
bin	0.000247776	2614
bin	0.0002486304	2757
bin	0.0002494848	2685
bin	0.0002503392	2610
bin	0.0002511936	2579
bin	0.000252048	2597
bin	0.0002529024	2592
bin	0.0002537568	2551
bin	0.0002546112	2503
bin	0.0002554656	2545
bin	0.00025632	2502
bin	0.0002571744	2511
bin	0.0002580288	2443
bin	0.0002588832	2328
bin	0.0002597376	2377
bin	0.000260592	2366
bin	0.0002614464	2453
bin	0.0002623008	2400
bin	0.0002631552	2413
bin	0.0002640096	2390
bin	0.000264864	2363
bin	0.0002657184	2404
bin	0.0002665728	2378
bin	0.0002674272	2384
bin	0.0002682816	2411
bin	0.000269136	2383
bin	0.0002699904	2334
bin	0.0002708448	2365
bin	0.0002716992	2355
bin	0.0002725536	2325
bin	0.000273408	2337
bin	0.0002742624	2406
bin	0.0002751168	2385
bin	0.0002759712	2362
bin	0.0002768256	2406
bin	0.00027768	2337
bin	0.0002785344	2238
bin	0.0002793888	2189
bin	0.0002802432	2231
bin	0.0002810976	2223
bin	0.000281952	2232
bin	0.0002828064	2157
bin	0.0002836608	2187
bin	0.0002845152	2158
bin	0.0002853696	2169
bin	0.000286224	2147
bin	0.0002870784	2174
bin	0.0002879328	2146
bin	0.0002887872	2162
bin	0.0002896416	2125
bin	0.000290496	2118
bin	0.0002913504	2164
bin	0.0002922048	2212
bin	0.0002930592	2189
bin	0.0002939136	2267
bin	0.000294768	2216
bin	0.0002956224	2170
bin	0.0002964768	2152
bin	0.0002973312	2199
bin	0.0002981856	2212
bin	0.00029904	2256
bin	0.0002998944	2160
bin	0.0003007488	2168
bin	0.0003016032	2143
bin	0.0003024576	2142
bin	0.000303312	2163
bin	0.0003041664	2150
bin	0.0003050208	2144
bin	0.0003058752	2092
bin	0.0003067296	2144
bin	0.000307584	2137
bin	0.0003084384	2009
bin	0.0003092928	2042
bin	0.0003101472	2062
bin	0.0003110016	2043
bin	0.000311856	2017
bin	0.0003127104	1936
bin	0.0003135648	2003
bin	0.0003144192	2004
bin	0.0003152736	1988
bin	0.000316128	1969
bin	0.0003169824	2067
bin	0.0003178368	2074
bin	0.0003186912	2033
bin	0.0003195456	2067
bin	0.0003204	2141
bin	0.0003212544	2028
bin	0.0003221088	2006
bin	0.0003229632	2043
bin	0.0003238176	2023
bin	0.000324672	1999
bin	0.0003255264	1976
bin	0.0003263808	2036
bin	0.0003272352	1994
bin	0.0003280896	2029
bin	0.000328944	1931
bin	0.0003297984	1937
bin	0.0003306528	1897
bin	0.0003315072	1916
bin	0.0003323616	1905
bin	0.000333216	1927
bin	0.0003340704	1926
bin	0.0003349248	1853
bin	0.0003357792	1875
bin	0.0003366336	1856
bin	0.000337488	1892
bin	0.0003383424	1881
bin	0.0003391968	1911
bin	0.0003400512	1968
bin	0.0003409056	1960
bin	0.00034176	2036
bin	0.0003426144	1983
bin	0.0003434688	2018
bin	0.0003443232	1988
bin	0.0003451776	2041
bin	0.000346032	1996
bin	0.0003468864	2003
bin	0.0003477408	1948
bin	0.0003485952	2056
bin	0.0003494496	2066
bin	0.000350304	2082
bin	0.0003511584	2006
bin	0.0003520128	1939
bin	0.0003528672	1987
bin	0.0003537216	1945
bin	0.000354576	1920
bin	0.0003554304	1863
bin	0.0003562848	1909
bin	0.0003571392	1841
bin	0.0003579936	1891
bin	0.000358848	1858
bin	0.0003597024	1887
bin	0.0003605568	1844
bin	0.0003614112	1781
bin	0.0003622656	1862
bin	0.00036312	1818
bin	0.0003639744	1834
bin	0.0003648288	1791
bin	0.0003656832	1843
bin	0.0003665376	1843
bin	0.000367392	1814
bin	0.0003682464	1818
bin	0.0003691008	1905
bin	0.0003699552	1936
bin	0.0003708096	1890
bin	0.000371664	1928
bin	0.0003725184	1886
bin	0.0003733728	1884
bin	0.0003742272	1842
bin	0.0003750816	1851
bin	0.000375936	1890
bin	0.0003767904	1956
bin	0.0003776448	1874
bin	0.0003784992	1808
bin	0.0003793536	1796
bin	0.000380208	1815
bin	0.0003810624	1816
bin	0.0003819168	1742
bin	0.0003827712	1748
bin	0.0003836256	1735
bin	0.00038448	1790
bin	0.0003853344	1731
bin	0.0003861888	1723
bin	0.0003870432	1743
bin	0.0003878976	1737
bin	0.000388752	1800
bin	0.0003896064	1726
bin	0.0003904608	1790
bin	0.0003913152	1759
bin	0.0003921696	1753
bin	0.000393024	1829
bin	0.0003938784	1777
bin	0.0003947328	1816
bin	0.0003955872	1844
bin	0.0003964416	1803
bin	0.000397296	1837
bin	0.0003981504	1889
bin	0.0003990048	1804
bin	0.0003998592	1800
bin	0.0004007136	1752
bin	0.000401568	1690
bin	0.0004024224	1765
bin	0.0004032768	1733
bin	0.0004041312	1696
bin	0.0004049856	1669
bin	0.00040584	1585
bin	0.0004066944	1715
bin	0.0004075488	1690
bin	0.0004084032	1696
bin	0.0004092576	1709
bin	0.000410112	1741
bin	0.0004109664	1711
bin	0.0004118208	1696
bin	0.0004126752	1701
bin	0.0004135296	1741
bin	0.000414384	1713
bin	0.0004152384	1690
bin	0.0004160928	1720
bin	0.0004169472	1780
bin	0.0004178016	1814
bin	0.000418656	1842
bin	0.0004195104	1780
bin	0.0004203648	1796
bin	0.0004212192	1790
bin	0.0004220736	1825
bin	0.000422928	1788
bin	0.0004237824	1741
bin	0.0004246368	1742
bin	0.0004254912	1727
bin	0.0004263456	1670
bin	0.0004272	3926352
