version 2
run Permutation-37-20120710-22:39:26-28116
attr alg 1
attr buf 8
attr configname Permutation
attr datetime 20120710-22:39:26
attr delta 1
attr experiment Permutation
attr ext true
attr inifile altro.ini
attr iterationvars "$buf=8, $ext=true, $ofedge=2, $delta=1, $alg=1"
attr iterationvars2 "$buf=8, $ext=true, $ofedge=2, $delta=1, $alg=1, $repetition=0"
attr measurement "$buf=8, $ext=true, $ofedge=2, $delta=1, $alg=1"
attr network Torus3d_bub
attr ofedge 2
attr processid 28116
attr repetition 0
attr replication #0
attr resultdir altro-results
attr runnumber 37
attr seedset 37

scalar . 	alg 	1
scalar . 	buf 	8
scalar . 	delta 	1
scalar . 	ofedge 	2
scalar Torus3d_bub.timer 	#endTime 	0.00443044032689
scalar Torus3d_bub.timer 	#totalHops 	92203106
scalar Torus3d_bub.timer 	#totalPacks 	6291456
scalar Torus3d_bub.timer 	#totalDerouted 	2233488
scalar Torus3d_bub.timer 	#totalOutFlanked 	2233488
scalar Torus3d_bub.timer 	#totalCQRed 	0
scalar Torus3d_bub.timer 	#LB 	0.000786432
scalar Torus3d_bub.timer 	#ratio 	0.17750650995723
statistic Torus3d_bub.timer 	"Hop Times"
field count 6291456
field mean 0.00012815831441356
field stddev 0.00013632914957489
field sum 806.3023961671
field sqrsum 0.22026505498205
field min 4.03791666e-07
field max 0.003668648666663
bin	-INF	0
bin	0	0
bin	7.12e-08	0
bin	1.424e-07	0
bin	2.136e-07	0
bin	2.848e-07	0
bin	3.56e-07	23
bin	4.272e-07	604
bin	4.984e-07	1868
bin	5.696e-07	3026
bin	6.408e-07	4236
bin	7.12e-07	5521
bin	7.832e-07	6799
bin	8.544e-07	8185
bin	9.256e-07	9290
bin	9.968e-07	10388
bin	1.068e-06	11891
bin	1.1392e-06	13443
bin	1.2104e-06	15364
bin	1.2816e-06	17133
bin	1.3528e-06	19115
bin	1.424e-06	21113
bin	1.4952e-06	23040
bin	1.5664e-06	25046
bin	1.6376e-06	26584
bin	1.7088e-06	27490
bin	1.78e-06	28324
bin	1.8512e-06	28113
bin	1.9224e-06	28035
bin	1.9936e-06	27201
bin	2.0648e-06	26109
bin	2.136e-06	24814
bin	2.2072e-06	23673
bin	2.2784e-06	22300
bin	2.3496e-06	21162
bin	2.4208e-06	19684
bin	2.492e-06	18706
bin	2.5632e-06	17255
bin	2.6344e-06	16293
bin	2.7056e-06	15071
bin	2.7768e-06	14045
bin	2.848e-06	13083
bin	2.9192e-06	12291
bin	2.9904e-06	11618
bin	3.0616e-06	10884
bin	3.1328e-06	10254
bin	3.204e-06	9626
bin	3.2752e-06	9015
bin	3.3464e-06	8617
bin	3.4176e-06	8136
bin	3.4888e-06	7851
bin	3.56e-06	7495
bin	3.6312e-06	7241
bin	3.7024e-06	6738
bin	3.7736e-06	6543
bin	3.8448e-06	6409
bin	3.916e-06	6005
bin	3.9872e-06	5888
bin	4.0584e-06	5754
bin	4.1296e-06	5471
bin	4.2008e-06	5461
bin	4.272e-06	5326
bin	4.3432e-06	5219
bin	4.4144e-06	4995
bin	4.4856e-06	4915
bin	4.5568e-06	4796
bin	4.628e-06	4631
bin	4.6992e-06	4524
bin	4.7704e-06	4543
bin	4.8416e-06	4327
bin	4.9128e-06	4352
bin	4.984e-06	4186
bin	5.0552e-06	4136
bin	5.1264e-06	3993
bin	5.1976e-06	4137
bin	5.2688e-06	3866
bin	5.34e-06	3835
bin	5.4112e-06	3701
bin	5.4824e-06	3683
bin	5.5536e-06	3739
bin	5.6248e-06	3662
bin	5.696e-06	3653
bin	5.7672e-06	3643
bin	5.8384e-06	3608
bin	5.9096e-06	3581
bin	5.9808e-06	3477
bin	6.052e-06	3469
bin	6.1232e-06	3427
bin	6.1944e-06	3448
bin	6.2656e-06	3357
bin	6.3368e-06	3270
bin	6.408e-06	3196
bin	6.4792e-06	3219
bin	6.5504e-06	3149
bin	6.6216e-06	3198
bin	6.6928e-06	3162
bin	6.764e-06	3118
bin	6.8352e-06	3062
bin	6.9064e-06	3024
bin	6.9776e-06	2956
bin	7.0488e-06	3038
bin	7.12e-06	3091
bin	7.1912e-06	2863
bin	7.2624e-06	2968
bin	7.3336e-06	2840
bin	7.4048e-06	2816
bin	7.476e-06	2936
bin	7.5472e-06	2872
bin	7.6184e-06	2925
bin	7.6896e-06	2779
bin	7.7608e-06	2807
bin	7.832e-06	2734
bin	7.9032e-06	2622
bin	7.9744e-06	2610
bin	8.0456e-06	2544
bin	8.1168e-06	2570
bin	8.188e-06	2594
bin	8.2592e-06	2602
bin	8.3304e-06	2580
bin	8.4016e-06	2536
bin	8.4728e-06	2551
bin	8.544e-06	2544
bin	8.6152e-06	2507
bin	8.6864e-06	2526
bin	8.7576e-06	2540
bin	8.8288e-06	2525
bin	8.9e-06	2465
bin	8.9712e-06	2444
bin	9.0424e-06	2385
bin	9.1136e-06	2441
bin	9.1848e-06	2355
bin	9.256e-06	2377
bin	9.3272e-06	2400
bin	9.3984e-06	2300
bin	9.4696e-06	2284
bin	9.5408e-06	2353
bin	9.612e-06	2313
bin	9.6832e-06	2263
bin	9.7544e-06	2325
bin	9.8256e-06	2247
bin	9.8968e-06	2227
bin	9.968e-06	2232
bin	1.00392e-05	2208
bin	1.01104e-05	2167
bin	1.01816e-05	2151
bin	1.02528e-05	2147
bin	1.0324e-05	2206
bin	1.03952e-05	2188
bin	1.04664e-05	2091
bin	1.05376e-05	2193
bin	1.06088e-05	2158
bin	1.068e-05	2112
bin	1.07512e-05	2053
bin	1.08224e-05	2066
bin	1.08936e-05	2041
bin	1.09648e-05	2055
bin	1.1036e-05	2057
bin	1.11072e-05	2082
bin	1.11784e-05	2092
bin	1.12496e-05	2051
bin	1.13208e-05	2042
bin	1.1392e-05	2090
bin	1.14632e-05	1974
bin	1.15344e-05	1927
bin	1.16056e-05	1947
bin	1.16768e-05	1855
bin	1.1748e-05	1863
bin	1.18192e-05	1890
bin	1.18904e-05	1860
bin	1.19616e-05	1909
bin	1.20328e-05	1822
bin	1.2104e-05	1811
bin	1.21752e-05	1838
bin	1.22464e-05	1795
bin	1.23176e-05	1875
bin	1.23888e-05	1862
bin	1.246e-05	1895
bin	1.25312e-05	1797
bin	1.26024e-05	1853
bin	1.26736e-05	1822
bin	1.27448e-05	1809
bin	1.2816e-05	1859
bin	1.28872e-05	1828
bin	1.29584e-05	1865
bin	1.30296e-05	1773
bin	1.31008e-05	1767
bin	1.3172e-05	1791
bin	1.32432e-05	1764
bin	1.33144e-05	1740
bin	1.33856e-05	1855
bin	1.34568e-05	1781
bin	1.3528e-05	1760
bin	1.35992e-05	1845
bin	1.36704e-05	1807
bin	1.37416e-05	1801
bin	1.38128e-05	1727
bin	1.3884e-05	1696
bin	1.39552e-05	1749
bin	1.40264e-05	1743
bin	1.40976e-05	1709
bin	1.41688e-05	1738
bin	1.424e-05	1672
bin	1.43112e-05	1672
bin	1.43824e-05	1709
bin	1.44536e-05	1758
bin	1.45248e-05	1648
bin	1.4596e-05	1722
bin	1.46672e-05	1752
bin	1.47384e-05	1696
bin	1.48096e-05	1736
bin	1.48808e-05	1702
bin	1.4952e-05	1641
bin	1.50232e-05	1699
bin	1.50944e-05	1778
bin	1.51656e-05	1741
bin	1.52368e-05	1811
bin	1.5308e-05	1743
bin	1.53792e-05	1648
bin	1.54504e-05	1647
bin	1.55216e-05	1628
bin	1.55928e-05	1646
bin	1.5664e-05	1606
bin	1.57352e-05	1665
bin	1.58064e-05	1627
bin	1.58776e-05	1583
bin	1.59488e-05	1582
bin	1.602e-05	1641
bin	1.60912e-05	1560
bin	1.61624e-05	1622
bin	1.62336e-05	1566
bin	1.63048e-05	1486
bin	1.6376e-05	1567
bin	1.64472e-05	1660
bin	1.65184e-05	1702
bin	1.65896e-05	1658
bin	1.66608e-05	1656
bin	1.6732e-05	1635
bin	1.68032e-05	1528
bin	1.68744e-05	1595
bin	1.69456e-05	1618
bin	1.70168e-05	1562
bin	1.7088e-05	1615
bin	1.71592e-05	1569
bin	1.72304e-05	1539
bin	1.73016e-05	1515
bin	1.73728e-05	1486
bin	1.7444e-05	1539
bin	1.75152e-05	1522
bin	1.75864e-05	1534
bin	1.76576e-05	1605
bin	1.77288e-05	1606
bin	1.78e-05	1584
bin	1.78712e-05	1434
bin	1.79424e-05	1473
bin	1.80136e-05	1483
bin	1.80848e-05	1481
bin	1.8156e-05	1498
bin	1.82272e-05	1480
bin	1.82984e-05	1413
bin	1.83696e-05	1421
bin	1.84408e-05	1429
bin	1.8512e-05	1455
bin	1.85832e-05	1452
bin	1.86544e-05	1497
bin	1.87256e-05	1474
bin	1.87968e-05	1489
bin	1.8868e-05	1482
bin	1.89392e-05	1472
bin	1.90104e-05	1454
bin	1.90816e-05	1433
bin	1.91528e-05	1523
bin	1.9224e-05	1519
bin	1.92952e-05	1490
bin	1.93664e-05	1474
bin	1.94376e-05	1504
bin	1.95088e-05	1469
bin	1.958e-05	1471
bin	1.96512e-05	1599
bin	1.97224e-05	1507
bin	1.97936e-05	1479
bin	1.98648e-05	1479
bin	1.9936e-05	1454
bin	2.00072e-05	1445
bin	2.00784e-05	1392
bin	2.01496e-05	1484
bin	2.02208e-05	1510
bin	2.0292e-05	1531
bin	2.03632e-05	1496
bin	2.04344e-05	1508
bin	2.05056e-05	1541
bin	2.05768e-05	1468
bin	2.0648e-05	1491
bin	2.07192e-05	1489
bin	2.07904e-05	1455
bin	2.08616e-05	1477
bin	2.09328e-05	1452
bin	2.1004e-05	1554
bin	2.10752e-05	1523
bin	2.11464e-05	1452
bin	2.12176e-05	1434
bin	2.12888e-05	1495
bin	2.136e-05	1526
bin	2.14312e-05	1359
bin	2.15024e-05	1447
bin	2.15736e-05	1459
bin	2.16448e-05	1478
bin	2.1716e-05	1443
bin	2.17872e-05	1434
bin	2.18584e-05	1408
bin	2.19296e-05	1435
bin	2.20008e-05	1493
bin	2.2072e-05	1470
bin	2.21432e-05	1433
bin	2.22144e-05	1343
bin	2.22856e-05	1459
bin	2.23568e-05	1459
bin	2.2428e-05	1468
bin	2.24992e-05	1482
bin	2.25704e-05	1457
bin	2.26416e-05	1452
bin	2.27128e-05	1495
bin	2.2784e-05	1527
bin	2.28552e-05	1469
bin	2.29264e-05	1431
bin	2.29976e-05	1467
bin	2.30688e-05	1487
bin	2.314e-05	1499
bin	2.32112e-05	1527
bin	2.32824e-05	1491
bin	2.33536e-05	1501
bin	2.34248e-05	1461
bin	2.3496e-05	1502
bin	2.35672e-05	1489
bin	2.36384e-05	1454
bin	2.37096e-05	1434
bin	2.37808e-05	1427
bin	2.3852e-05	1375
bin	2.39232e-05	1448
bin	2.39944e-05	1467
bin	2.40656e-05	1434
bin	2.41368e-05	1426
bin	2.4208e-05	1370
bin	2.42792e-05	1386
bin	2.43504e-05	1451
bin	2.44216e-05	1494
bin	2.44928e-05	1455
bin	2.4564e-05	1416
bin	2.46352e-05	1414
bin	2.47064e-05	1431
bin	2.47776e-05	1360
bin	2.48488e-05	1326
bin	2.492e-05	1370
bin	2.49912e-05	1347
bin	2.50624e-05	1434
bin	2.51336e-05	1392
bin	2.52048e-05	1355
bin	2.5276e-05	1348
bin	2.53472e-05	1316
bin	2.54184e-05	1313
bin	2.54896e-05	1349
bin	2.55608e-05	1373
bin	2.5632e-05	1350
bin	2.57032e-05	1328
bin	2.57744e-05	1316
bin	2.58456e-05	1370
bin	2.59168e-05	1321
bin	2.5988e-05	1306
bin	2.60592e-05	1277
bin	2.61304e-05	1350
bin	2.62016e-05	1443
bin	2.62728e-05	1299
bin	2.6344e-05	1281
bin	2.64152e-05	1298
bin	2.64864e-05	1327
bin	2.65576e-05	1344
bin	2.66288e-05	1347
bin	2.67e-05	1341
bin	2.67712e-05	1293
bin	2.68424e-05	1344
bin	2.69136e-05	1317
bin	2.69848e-05	1316
bin	2.7056e-05	1259
bin	2.71272e-05	1291
bin	2.71984e-05	1292
bin	2.72696e-05	1214
bin	2.73408e-05	1365
bin	2.7412e-05	1312
bin	2.74832e-05	1348
bin	2.75544e-05	1431
bin	2.76256e-05	1347
bin	2.76968e-05	1341
bin	2.7768e-05	1426
bin	2.78392e-05	1378
bin	2.79104e-05	1329
bin	2.79816e-05	1348
bin	2.80528e-05	1296
bin	2.8124e-05	1297
bin	2.81952e-05	1253
bin	2.82664e-05	1220
bin	2.83376e-05	1281
bin	2.84088e-05	1270
bin	2.848e-05	1291
bin	2.85512e-05	1292
bin	2.86224e-05	1279
bin	2.86936e-05	1266
bin	2.87648e-05	1298
bin	2.8836e-05	1216
bin	2.89072e-05	1244
bin	2.89784e-05	1275
bin	2.90496e-05	1340
bin	2.91208e-05	1347
bin	2.9192e-05	1357
bin	2.92632e-05	1310
bin	2.93344e-05	1292
bin	2.94056e-05	1299
bin	2.94768e-05	1303
bin	2.9548e-05	1240
bin	2.96192e-05	1302
bin	2.96904e-05	1300
bin	2.97616e-05	1324
bin	2.98328e-05	1307
bin	2.9904e-05	1328
bin	2.99752e-05	1345
bin	3.00464e-05	1362
bin	3.01176e-05	1337
bin	3.01888e-05	1321
bin	3.026e-05	1366
bin	3.03312e-05	1397
bin	3.04024e-05	1374
bin	3.04736e-05	1335
bin	3.05448e-05	1408
bin	3.0616e-05	1397
bin	3.06872e-05	1379
bin	3.07584e-05	1304
bin	3.08296e-05	1332
bin	3.09008e-05	1353
bin	3.0972e-05	1349
bin	3.10432e-05	1348
bin	3.11144e-05	1397
bin	3.11856e-05	1367
bin	3.12568e-05	1416
bin	3.1328e-05	1376
bin	3.13992e-05	1393
bin	3.14704e-05	1461
bin	3.15416e-05	1454
bin	3.16128e-05	1434
bin	3.1684e-05	1399
bin	3.17552e-05	1371
bin	3.18264e-05	1381
bin	3.18976e-05	1438
bin	3.19688e-05	1404
bin	3.204e-05	1404
bin	3.21112e-05	1405
bin	3.21824e-05	1435
bin	3.22536e-05	1414
bin	3.23248e-05	1393
bin	3.2396e-05	1385
bin	3.24672e-05	1420
bin	3.25384e-05	1333
bin	3.26096e-05	1342
bin	3.26808e-05	1318
bin	3.2752e-05	1373
bin	3.28232e-05	1327
bin	3.28944e-05	1328
bin	3.29656e-05	1355
bin	3.30368e-05	1395
bin	3.3108e-05	1363
bin	3.31792e-05	1389
bin	3.32504e-05	1364
bin	3.33216e-05	1388
bin	3.33928e-05	1343
bin	3.3464e-05	1348
bin	3.35352e-05	1359
bin	3.36064e-05	1442
bin	3.36776e-05	1436
bin	3.37488e-05	1376
bin	3.382e-05	1379
bin	3.38912e-05	1358
bin	3.39624e-05	1344
bin	3.40336e-05	1399
bin	3.41048e-05	1368
bin	3.4176e-05	1379
bin	3.42472e-05	1448
bin	3.43184e-05	1442
bin	3.43896e-05	1417
bin	3.44608e-05	1462
bin	3.4532e-05	1495
bin	3.46032e-05	1437
bin	3.46744e-05	1462
bin	3.47456e-05	1451
bin	3.48168e-05	1391
bin	3.4888e-05	1337
bin	3.49592e-05	1353
bin	3.50304e-05	1362
bin	3.51016e-05	1380
bin	3.51728e-05	1398
bin	3.5244e-05	1415
bin	3.53152e-05	1505
bin	3.53864e-05	1429
bin	3.54576e-05	1450
bin	3.55288e-05	1507
bin	3.56e-05	4743706
statistic Torus3d_bub.timer 	"Life Times"
field count 6291456
field mean 0.0016855691556699
field stddev 0.0012004572310704
field sum 10604.684177854
field sqrsum 26.941529027995
field min 6.47999923e-07
field max 0.00433006532689
bin	-INF	0
bin	0	8
bin	8.544e-07	211
bin	1.7088e-06	735
bin	2.5632e-06	1618
bin	3.4176e-06	2619
bin	4.272e-06	3700
bin	5.1264e-06	4650
bin	5.9808e-06	5834
bin	6.8352e-06	6941
bin	7.6896e-06	7996
bin	8.544e-06	9352
bin	9.3984e-06	10726
bin	1.02528e-05	11708
bin	1.11072e-05	12440
bin	1.19616e-05	13574
bin	1.2816e-05	14139
bin	1.36704e-05	15047
bin	1.45248e-05	15787
bin	1.53792e-05	16495
bin	1.62336e-05	17285
bin	1.7088e-05	17929
bin	1.79424e-05	18652
bin	1.87968e-05	19713
bin	1.96512e-05	20371
bin	2.05056e-05	20942
bin	2.136e-05	22022
bin	2.22144e-05	22834
bin	2.30688e-05	23678
bin	2.39232e-05	24195
bin	2.47776e-05	24669
bin	2.5632e-05	24435
bin	2.64864e-05	23737
bin	2.73408e-05	22728
bin	2.81952e-05	21493
bin	2.90496e-05	20244
bin	2.9904e-05	18631
bin	3.07584e-05	17340
bin	3.16128e-05	16219
bin	3.24672e-05	15077
bin	3.33216e-05	13684
bin	3.4176e-05	12619
bin	3.50304e-05	11404
bin	3.58848e-05	10342
bin	3.67392e-05	9683
bin	3.75936e-05	8946
bin	3.8448e-05	8619
bin	3.93024e-05	8104
bin	4.01568e-05	7912
bin	4.10112e-05	7547
bin	4.18656e-05	7164
bin	4.272e-05	7086
bin	4.35744e-05	6825
bin	4.44288e-05	6714
bin	4.52832e-05	6661
bin	4.61376e-05	6539
bin	4.6992e-05	6466
bin	4.78464e-05	6305
bin	4.87008e-05	6155
bin	4.95552e-05	6073
bin	5.04096e-05	6085
bin	5.1264e-05	5852
bin	5.21184e-05	5646
bin	5.29728e-05	5565
bin	5.38272e-05	5204
bin	5.46816e-05	5124
bin	5.5536e-05	4958
bin	5.63904e-05	4662
bin	5.72448e-05	4708
bin	5.80992e-05	4426
bin	5.89536e-05	4297
bin	5.9808e-05	4172
bin	6.06624e-05	4091
bin	6.15168e-05	3927
bin	6.23712e-05	3799
bin	6.32256e-05	3761
bin	6.408e-05	3682
bin	6.49344e-05	3555
bin	6.57888e-05	3546
bin	6.66432e-05	3443
bin	6.74976e-05	3538
bin	6.8352e-05	3518
bin	6.92064e-05	3495
bin	7.00608e-05	3427
bin	7.09152e-05	3361
bin	7.17696e-05	3373
bin	7.2624e-05	3419
bin	7.34784e-05	3383
bin	7.43328e-05	3353
bin	7.51872e-05	3410
bin	7.60416e-05	3398
bin	7.6896e-05	3392
bin	7.77504e-05	3314
bin	7.86048e-05	3333
bin	7.94592e-05	3255
bin	8.03136e-05	3242
bin	8.1168e-05	3209
bin	8.20224e-05	3110
bin	8.28768e-05	3049
bin	8.37312e-05	2949
bin	8.45856e-05	2952
bin	8.544e-05	2917
bin	8.62944e-05	2826
bin	8.71488e-05	2735
bin	8.80032e-05	2787
bin	8.88576e-05	2700
bin	8.9712e-05	2736
bin	9.05664e-05	2692
bin	9.14208e-05	2727
bin	9.22752e-05	2655
bin	9.31296e-05	2676
bin	9.3984e-05	2733
bin	9.48384e-05	2640
bin	9.56928e-05	2664
bin	9.65472e-05	2652
bin	9.74016e-05	2621
bin	9.8256e-05	2582
bin	9.91104e-05	2587
bin	9.99648e-05	2496
bin	0.0001008192	2487
bin	0.0001016736	2484
bin	0.000102528	2518
bin	0.0001033824	2509
bin	0.0001042368	2512
bin	0.0001050912	2459
bin	0.0001059456	2373
bin	0.0001068	2418
bin	0.0001076544	2397
bin	0.0001085088	2394
bin	0.0001093632	2275
bin	0.0001102176	2342
bin	0.000111072	2298
bin	0.0001119264	2151
bin	0.0001127808	2251
bin	0.0001136352	2193
bin	0.0001144896	2157
bin	0.000115344	2174
bin	0.0001161984	2150
bin	0.0001170528	2190
bin	0.0001179072	2247
bin	0.0001187616	2119
bin	0.000119616	2127
bin	0.0001204704	2088
bin	0.0001213248	2184
bin	0.0001221792	2240
bin	0.0001230336	2201
bin	0.000123888	2127
bin	0.0001247424	2185
bin	0.0001255968	2166
bin	0.0001264512	2220
bin	0.0001273056	2118
bin	0.00012816	2171
bin	0.0001290144	2098
bin	0.0001298688	2080
bin	0.0001307232	2079
bin	0.0001315776	2031
bin	0.000132432	1997
bin	0.0001332864	1945
bin	0.0001341408	1993
bin	0.0001349952	1810
bin	0.0001358496	1848
bin	0.000136704	1935
bin	0.0001375584	1909
bin	0.0001384128	1882
bin	0.0001392672	1881
bin	0.0001401216	1908
bin	0.000140976	1921
bin	0.0001418304	1862
bin	0.0001426848	1909
bin	0.0001435392	1795
bin	0.0001443936	1860
bin	0.000145248	1872
bin	0.0001461024	1810
bin	0.0001469568	1882
bin	0.0001478112	1966
bin	0.0001486656	1889
bin	0.00014952	1848
bin	0.0001503744	1820
bin	0.0001512288	1875
bin	0.0001520832	1810
bin	0.0001529376	1805
bin	0.000153792	1728
bin	0.0001546464	1788
bin	0.0001555008	1828
bin	0.0001563552	1782
bin	0.0001572096	1769
bin	0.000158064	1727
bin	0.0001589184	1762
bin	0.0001597728	1758
bin	0.0001606272	1753
bin	0.0001614816	1780
bin	0.000162336	1730
bin	0.0001631904	1693
bin	0.0001640448	1724
bin	0.0001648992	1727
bin	0.0001657536	1654
bin	0.000166608	1685
bin	0.0001674624	1617
bin	0.0001683168	1673
bin	0.0001691712	1686
bin	0.0001700256	1639
bin	0.00017088	1680
bin	0.0001717344	1616
bin	0.0001725888	1598
bin	0.0001734432	1641
bin	0.0001742976	1683
bin	0.000175152	1638
bin	0.0001760064	1616
bin	0.0001768608	1606
bin	0.0001777152	1586
bin	0.0001785696	1622
bin	0.000179424	1606
bin	0.0001802784	1575
bin	0.0001811328	1592
bin	0.0001819872	1599
bin	0.0001828416	1554
bin	0.000183696	1543
bin	0.0001845504	1502
bin	0.0001854048	1519
bin	0.0001862592	1495
bin	0.0001871136	1490
bin	0.000187968	1466
bin	0.0001888224	1442
bin	0.0001896768	1475
bin	0.0001905312	1513
bin	0.0001913856	1535
bin	0.00019224	1509
bin	0.0001930944	1519
bin	0.0001939488	1520
bin	0.0001948032	1554
bin	0.0001956576	1530
bin	0.000196512	1568
bin	0.0001973664	1520
bin	0.0001982208	1544
bin	0.0001990752	1477
bin	0.0001999296	1461
bin	0.000200784	1498
bin	0.0002016384	1500
bin	0.0002024928	1463
bin	0.0002033472	1532
bin	0.0002042016	1498
bin	0.000205056	1550
bin	0.0002059104	1495
bin	0.0002067648	1480
bin	0.0002076192	1441
bin	0.0002084736	1376
bin	0.000209328	1414
bin	0.0002101824	1452
bin	0.0002110368	1426
bin	0.0002118912	1372
bin	0.0002127456	1410
bin	0.0002136	1420
bin	0.0002144544	1377
bin	0.0002153088	1316
bin	0.0002161632	1354
bin	0.0002170176	1368
bin	0.000217872	1365
bin	0.0002187264	1342
bin	0.0002195808	1394
bin	0.0002204352	1378
bin	0.0002212896	1399
bin	0.000222144	1394
bin	0.0002229984	1432
bin	0.0002238528	1391
bin	0.0002247072	1460
bin	0.0002255616	1466
bin	0.000226416	1353
bin	0.0002272704	1433
bin	0.0002281248	1437
bin	0.0002289792	1436
bin	0.0002298336	1418
bin	0.000230688	1378
bin	0.0002315424	1396
bin	0.0002323968	1420
bin	0.0002332512	1362
bin	0.0002341056	1357
bin	0.00023496	1418
bin	0.0002358144	1379
bin	0.0002366688	1385
bin	0.0002375232	1288
bin	0.0002383776	1339
bin	0.000239232	1407
bin	0.0002400864	1366
bin	0.0002409408	1380
bin	0.0002417952	1391
bin	0.0002426496	1394
bin	0.000243504	1471
bin	0.0002443584	1447
bin	0.0002452128	1433
bin	0.0002460672	1427
bin	0.0002469216	1429
bin	0.000247776	1406
bin	0.0002486304	1397
bin	0.0002494848	1394
bin	0.0002503392	1358
bin	0.0002511936	1428
bin	0.000252048	1350
bin	0.0002529024	1328
bin	0.0002537568	1357
bin	0.0002546112	1346
bin	0.0002554656	1340
bin	0.00025632	1322
bin	0.0002571744	1282
bin	0.0002580288	1214
bin	0.0002588832	1205
bin	0.0002597376	1252
bin	0.000260592	1252
bin	0.0002614464	1270
bin	0.0002623008	1270
bin	0.0002631552	1269
bin	0.0002640096	1257
bin	0.000264864	1280
bin	0.0002657184	1265
bin	0.0002665728	1292
bin	0.0002674272	1265
bin	0.0002682816	1195
bin	0.000269136	1235
bin	0.0002699904	1223
bin	0.0002708448	1246
bin	0.0002716992	1293
bin	0.0002725536	1271
bin	0.000273408	1264
bin	0.0002742624	1289
bin	0.0002751168	1276
bin	0.0002759712	1257
bin	0.0002768256	1257
bin	0.00027768	1252
bin	0.0002785344	1193
bin	0.0002793888	1229
bin	0.0002802432	1223
bin	0.0002810976	1250
bin	0.000281952	1170
bin	0.0002828064	1179
bin	0.0002836608	1163
bin	0.0002845152	1227
bin	0.0002853696	1223
bin	0.000286224	1201
bin	0.0002870784	1262
bin	0.0002879328	1255
bin	0.0002887872	1228
bin	0.0002896416	1221
bin	0.000290496	1218
bin	0.0002913504	1278
bin	0.0002922048	1225
bin	0.0002930592	1292
bin	0.0002939136	1273
bin	0.000294768	1288
bin	0.0002956224	1265
bin	0.0002964768	1287
bin	0.0002973312	1255
bin	0.0002981856	1308
bin	0.00029904	1298
bin	0.0002998944	1332
bin	0.0003007488	1309
bin	0.0003016032	1349
bin	0.0003024576	1381
bin	0.000303312	1388
bin	0.0003041664	1323
bin	0.0003050208	1400
bin	0.0003058752	1343
bin	0.0003067296	1355
bin	0.000307584	1388
bin	0.0003084384	1379
bin	0.0003092928	1315
bin	0.0003101472	1324
bin	0.0003110016	1323
bin	0.000311856	1287
bin	0.0003127104	1262
bin	0.0003135648	1323
bin	0.0003144192	1325
bin	0.0003152736	1333
bin	0.000316128	1286
bin	0.0003169824	1316
bin	0.0003178368	1347
bin	0.0003186912	1386
bin	0.0003195456	1327
bin	0.0003204	1323
bin	0.0003212544	1245
bin	0.0003221088	1309
bin	0.0003229632	1262
bin	0.0003238176	1299
bin	0.000324672	1262
bin	0.0003255264	1237
bin	0.0003263808	1263
bin	0.0003272352	1238
bin	0.0003280896	1222
bin	0.000328944	1211
bin	0.0003297984	1264
bin	0.0003306528	1245
bin	0.0003315072	1245
bin	0.0003323616	1207
bin	0.000333216	1260
bin	0.0003340704	1209
bin	0.0003349248	1160
bin	0.0003357792	1208
bin	0.0003366336	1271
bin	0.000337488	1293
bin	0.0003383424	1230
bin	0.0003391968	1269
bin	0.0003400512	1213
bin	0.0003409056	1195
bin	0.00034176	1185
bin	0.0003426144	1201
bin	0.0003434688	1216
bin	0.0003443232	1174
bin	0.0003451776	1270
bin	0.000346032	1254
bin	0.0003468864	1127
bin	0.0003477408	1194
bin	0.0003485952	1216
bin	0.0003494496	1218
bin	0.000350304	1248
bin	0.0003511584	1227
bin	0.0003520128	1236
bin	0.0003528672	1162
bin	0.0003537216	1260
bin	0.000354576	1242
bin	0.0003554304	1271
bin	0.0003562848	1283
bin	0.0003571392	1251
bin	0.0003579936	1227
bin	0.000358848	1226
bin	0.0003597024	1151
bin	0.0003605568	1182
bin	0.0003614112	1143
bin	0.0003622656	1122
bin	0.00036312	1214
bin	0.0003639744	1163
bin	0.0003648288	1132
bin	0.0003656832	1186
bin	0.0003665376	1175
bin	0.000367392	1229
bin	0.0003682464	1166
bin	0.0003691008	1167
bin	0.0003699552	1181
bin	0.0003708096	1149
bin	0.000371664	1150
bin	0.0003725184	1143
bin	0.0003733728	1130
bin	0.0003742272	1139
bin	0.0003750816	1169
bin	0.000375936	1143
bin	0.0003767904	1161
bin	0.0003776448	1176
bin	0.0003784992	1160
bin	0.0003793536	1173
bin	0.000380208	1152
bin	0.0003810624	1099
bin	0.0003819168	1103
bin	0.0003827712	1056
bin	0.0003836256	1096
bin	0.00038448	1105
bin	0.0003853344	1124
bin	0.0003861888	1123
bin	0.0003870432	1133
bin	0.0003878976	1122
bin	0.000388752	1166
bin	0.0003896064	1121
bin	0.0003904608	1112
bin	0.0003913152	1144
bin	0.0003921696	1158
bin	0.000393024	1148
bin	0.0003938784	1114
bin	0.0003947328	1146
bin	0.0003955872	1212
bin	0.0003964416	1159
bin	0.000397296	1197
bin	0.0003981504	1134
bin	0.0003990048	1196
bin	0.0003998592	1167
bin	0.0004007136	1198
bin	0.000401568	1206
bin	0.0004024224	1192
bin	0.0004032768	1195
bin	0.0004041312	1180
bin	0.0004049856	1162
bin	0.00040584	1144
bin	0.0004066944	1146
bin	0.0004075488	1168
bin	0.0004084032	1128
bin	0.0004092576	1159
bin	0.000410112	1175
bin	0.0004109664	1100
bin	0.0004118208	1158
bin	0.0004126752	1223
bin	0.0004135296	1162
bin	0.000414384	1183
bin	0.0004152384	1175
bin	0.0004160928	1141
bin	0.0004169472	1110
bin	0.0004178016	1230
bin	0.000418656	1163
bin	0.0004195104	1170
bin	0.0004203648	1145
bin	0.0004212192	1098
bin	0.0004220736	1080
bin	0.000422928	1127
bin	0.0004237824	1115
bin	0.0004246368	1097
bin	0.0004254912	1128
bin	0.0004263456	1171
bin	0.0004272	4798159
