version 2
run Permutation-77-20120711-02:14:18-28237
attr alg 1
attr buf 8
attr configname Permutation
attr datetime 20120711-02:14:18
attr delta 1
attr experiment Permutation
attr ext false
attr inifile altro.ini
attr iterationvars "$buf=8, $ext=false, $ofedge=2, $delta=1, $alg=1"
attr iterationvars2 "$buf=8, $ext=false, $ofedge=2, $delta=1, $alg=1, $repetition=0"
attr measurement "$buf=8, $ext=false, $ofedge=2, $delta=1, $alg=1"
attr network Torus3d_bub
attr ofedge 2
attr processid 28237
attr repetition 0
attr replication #0
attr resultdir altro-results
attr runnumber 77
attr seedset 77

scalar . 	alg 	1
scalar . 	buf 	8
scalar . 	delta 	1
scalar . 	ofedge 	2
scalar Torus3d_bub.timer 	#endTime 	0.004447877659722
scalar Torus3d_bub.timer 	#totalHops 	92117272
scalar Torus3d_bub.timer 	#totalPacks 	6291456
scalar Torus3d_bub.timer 	#totalDerouted 	2217686
scalar Torus3d_bub.timer 	#totalOutFlanked 	2217686
scalar Torus3d_bub.timer 	#totalCQRed 	0
scalar Torus3d_bub.timer 	#LB 	0.000786432
scalar Torus3d_bub.timer 	#ratio 	0.17681061849375
statistic Torus3d_bub.timer 	"Hop Times"
field count 6291456
field mean 0.00012922100286035
field stddev 0.00012841383016011
field sum 812.98825377179
field sqrsum 0.2088019536522
field min 3.77125e-07
field max 0.003415591994447
bin	-INF	0
bin	0	0
bin	7.12e-08	0
bin	1.424e-07	0
bin	2.136e-07	0
bin	2.848e-07	0
bin	3.56e-07	180
bin	4.272e-07	963
bin	4.984e-07	2208
bin	5.696e-07	3301
bin	6.408e-07	4499
bin	7.12e-07	5781
bin	7.832e-07	7152
bin	8.544e-07	8408
bin	9.256e-07	9631
bin	9.968e-07	10907
bin	1.068e-06	12107
bin	1.1392e-06	13920
bin	1.2104e-06	15798
bin	1.2816e-06	17848
bin	1.3528e-06	19639
bin	1.424e-06	21756
bin	1.4952e-06	23566
bin	1.5664e-06	25564
bin	1.6376e-06	26960
bin	1.7088e-06	27861
bin	1.78e-06	28554
bin	1.8512e-06	28495
bin	1.9224e-06	28061
bin	1.9936e-06	27172
bin	2.0648e-06	26129
bin	2.136e-06	25231
bin	2.2072e-06	23922
bin	2.2784e-06	22333
bin	2.3496e-06	21221
bin	2.4208e-06	19852
bin	2.492e-06	18360
bin	2.5632e-06	17411
bin	2.6344e-06	16179
bin	2.7056e-06	14966
bin	2.7768e-06	14313
bin	2.848e-06	13152
bin	2.9192e-06	12414
bin	2.9904e-06	11650
bin	3.0616e-06	11010
bin	3.1328e-06	10508
bin	3.204e-06	9582
bin	3.2752e-06	9251
bin	3.3464e-06	8740
bin	3.4176e-06	8232
bin	3.4888e-06	7845
bin	3.56e-06	7603
bin	3.6312e-06	7243
bin	3.7024e-06	7039
bin	3.7736e-06	6622
bin	3.8448e-06	6416
bin	3.916e-06	6067
bin	3.9872e-06	5922
bin	4.0584e-06	5662
bin	4.1296e-06	5425
bin	4.2008e-06	5475
bin	4.272e-06	5222
bin	4.3432e-06	4972
bin	4.4144e-06	4846
bin	4.4856e-06	4754
bin	4.5568e-06	4585
bin	4.628e-06	4670
bin	4.6992e-06	4542
bin	4.7704e-06	4331
bin	4.8416e-06	4356
bin	4.9128e-06	4392
bin	4.984e-06	4236
bin	5.0552e-06	4168
bin	5.1264e-06	4104
bin	5.1976e-06	4017
bin	5.2688e-06	3905
bin	5.34e-06	3835
bin	5.4112e-06	3670
bin	5.4824e-06	3598
bin	5.5536e-06	3691
bin	5.6248e-06	3616
bin	5.696e-06	3630
bin	5.7672e-06	3610
bin	5.8384e-06	3434
bin	5.9096e-06	3420
bin	5.9808e-06	3313
bin	6.052e-06	3327
bin	6.1232e-06	3218
bin	6.1944e-06	3148
bin	6.2656e-06	3080
bin	6.3368e-06	3103
bin	6.408e-06	3058
bin	6.4792e-06	2991
bin	6.5504e-06	3031
bin	6.6216e-06	3028
bin	6.6928e-06	3093
bin	6.764e-06	2964
bin	6.8352e-06	2885
bin	6.9064e-06	2862
bin	6.9776e-06	2795
bin	7.0488e-06	2825
bin	7.12e-06	2763
bin	7.1912e-06	2834
bin	7.2624e-06	2739
bin	7.3336e-06	2799
bin	7.4048e-06	2789
bin	7.476e-06	2744
bin	7.5472e-06	2770
bin	7.6184e-06	2703
bin	7.6896e-06	2674
bin	7.7608e-06	2727
bin	7.832e-06	2605
bin	7.9032e-06	2668
bin	7.9744e-06	2623
bin	8.0456e-06	2651
bin	8.1168e-06	2568
bin	8.188e-06	2603
bin	8.2592e-06	2596
bin	8.3304e-06	2583
bin	8.4016e-06	2553
bin	8.4728e-06	2519
bin	8.544e-06	2474
bin	8.6152e-06	2505
bin	8.6864e-06	2562
bin	8.7576e-06	2534
bin	8.8288e-06	2460
bin	8.9e-06	2443
bin	8.9712e-06	2473
bin	9.0424e-06	2403
bin	9.1136e-06	2467
bin	9.1848e-06	2540
bin	9.256e-06	2354
bin	9.3272e-06	2410
bin	9.3984e-06	2406
bin	9.4696e-06	2442
bin	9.5408e-06	2428
bin	9.612e-06	2426
bin	9.6832e-06	2439
bin	9.7544e-06	2381
bin	9.8256e-06	2420
bin	9.8968e-06	2368
bin	9.968e-06	2328
bin	1.00392e-05	2274
bin	1.01104e-05	2313
bin	1.01816e-05	2316
bin	1.02528e-05	2364
bin	1.0324e-05	2263
bin	1.03952e-05	2360
bin	1.04664e-05	2223
bin	1.05376e-05	2180
bin	1.06088e-05	2202
bin	1.068e-05	2158
bin	1.07512e-05	2109
bin	1.08224e-05	2155
bin	1.08936e-05	2173
bin	1.09648e-05	2137
bin	1.1036e-05	2106
bin	1.11072e-05	2106
bin	1.11784e-05	2128
bin	1.12496e-05	2135
bin	1.13208e-05	2113
bin	1.1392e-05	2141
bin	1.14632e-05	2068
bin	1.15344e-05	2147
bin	1.16056e-05	2142
bin	1.16768e-05	2223
bin	1.1748e-05	2074
bin	1.18192e-05	2148
bin	1.18904e-05	2115
bin	1.19616e-05	2147
bin	1.20328e-05	2083
bin	1.2104e-05	2116
bin	1.21752e-05	2112
bin	1.22464e-05	2093
bin	1.23176e-05	2105
bin	1.23888e-05	2021
bin	1.246e-05	2007
bin	1.25312e-05	2092
bin	1.26024e-05	1962
bin	1.26736e-05	1957
bin	1.27448e-05	1941
bin	1.2816e-05	1911
bin	1.28872e-05	1912
bin	1.29584e-05	2007
bin	1.30296e-05	1966
bin	1.31008e-05	1918
bin	1.3172e-05	1892
bin	1.32432e-05	1907
bin	1.33144e-05	1959
bin	1.33856e-05	1846
bin	1.34568e-05	1931
bin	1.3528e-05	1941
bin	1.35992e-05	1909
bin	1.36704e-05	1867
bin	1.37416e-05	1857
bin	1.38128e-05	1860
bin	1.3884e-05	1891
bin	1.39552e-05	1929
bin	1.40264e-05	1968
bin	1.40976e-05	1948
bin	1.41688e-05	1929
bin	1.424e-05	1960
bin	1.43112e-05	1881
bin	1.43824e-05	1864
bin	1.44536e-05	1844
bin	1.45248e-05	1861
bin	1.4596e-05	1864
bin	1.46672e-05	1814
bin	1.47384e-05	1837
bin	1.48096e-05	1811
bin	1.48808e-05	1810
bin	1.4952e-05	1811
bin	1.50232e-05	1755
bin	1.50944e-05	1746
bin	1.51656e-05	1826
bin	1.52368e-05	1848
bin	1.5308e-05	1791
bin	1.53792e-05	1791
bin	1.54504e-05	1872
bin	1.55216e-05	1854
bin	1.55928e-05	1796
bin	1.5664e-05	1826
bin	1.57352e-05	1775
bin	1.58064e-05	1746
bin	1.58776e-05	1705
bin	1.59488e-05	1747
bin	1.602e-05	1759
bin	1.60912e-05	1820
bin	1.61624e-05	1733
bin	1.62336e-05	1739
bin	1.63048e-05	1689
bin	1.6376e-05	1753
bin	1.64472e-05	1822
bin	1.65184e-05	1708
bin	1.65896e-05	1689
bin	1.66608e-05	1664
bin	1.6732e-05	1624
bin	1.68032e-05	1650
bin	1.68744e-05	1610
bin	1.69456e-05	1638
bin	1.70168e-05	1661
bin	1.7088e-05	1594
bin	1.71592e-05	1551
bin	1.72304e-05	1573
bin	1.73016e-05	1578
bin	1.73728e-05	1568
bin	1.7444e-05	1514
bin	1.75152e-05	1615
bin	1.75864e-05	1709
bin	1.76576e-05	1658
bin	1.77288e-05	1650
bin	1.78e-05	1617
bin	1.78712e-05	1592
bin	1.79424e-05	1575
bin	1.80136e-05	1620
bin	1.80848e-05	1578
bin	1.8156e-05	1520
bin	1.82272e-05	1568
bin	1.82984e-05	1651
bin	1.83696e-05	1485
bin	1.84408e-05	1525
bin	1.8512e-05	1497
bin	1.85832e-05	1572
bin	1.86544e-05	1580
bin	1.87256e-05	1523
bin	1.87968e-05	1508
bin	1.8868e-05	1561
bin	1.89392e-05	1565
bin	1.90104e-05	1557
bin	1.90816e-05	1517
bin	1.91528e-05	1529
bin	1.9224e-05	1509
bin	1.92952e-05	1507
bin	1.93664e-05	1498
bin	1.94376e-05	1513
bin	1.95088e-05	1497
bin	1.958e-05	1471
bin	1.96512e-05	1537
bin	1.97224e-05	1496
bin	1.97936e-05	1423
bin	1.98648e-05	1482
bin	1.9936e-05	1435
bin	2.00072e-05	1452
bin	2.00784e-05	1502
bin	2.01496e-05	1498
bin	2.02208e-05	1551
bin	2.0292e-05	1523
bin	2.03632e-05	1489
bin	2.04344e-05	1513
bin	2.05056e-05	1457
bin	2.05768e-05	1516
bin	2.0648e-05	1498
bin	2.07192e-05	1497
bin	2.07904e-05	1607
bin	2.08616e-05	1484
bin	2.09328e-05	1397
bin	2.1004e-05	1412
bin	2.10752e-05	1440
bin	2.11464e-05	1520
bin	2.12176e-05	1508
bin	2.12888e-05	1533
bin	2.136e-05	1491
bin	2.14312e-05	1527
bin	2.15024e-05	1533
bin	2.15736e-05	1508
bin	2.16448e-05	1527
bin	2.1716e-05	1481
bin	2.17872e-05	1498
bin	2.18584e-05	1476
bin	2.19296e-05	1515
bin	2.20008e-05	1584
bin	2.2072e-05	1520
bin	2.21432e-05	1538
bin	2.22144e-05	1479
bin	2.22856e-05	1403
bin	2.23568e-05	1477
bin	2.2428e-05	1431
bin	2.24992e-05	1479
bin	2.25704e-05	1464
bin	2.26416e-05	1374
bin	2.27128e-05	1393
bin	2.2784e-05	1397
bin	2.28552e-05	1385
bin	2.29264e-05	1399
bin	2.29976e-05	1402
bin	2.30688e-05	1417
bin	2.314e-05	1423
bin	2.32112e-05	1443
bin	2.32824e-05	1407
bin	2.33536e-05	1464
bin	2.34248e-05	1468
bin	2.3496e-05	1478
bin	2.35672e-05	1510
bin	2.36384e-05	1404
bin	2.37096e-05	1418
bin	2.37808e-05	1392
bin	2.3852e-05	1437
bin	2.39232e-05	1380
bin	2.39944e-05	1331
bin	2.40656e-05	1376
bin	2.41368e-05	1314
bin	2.4208e-05	1333
bin	2.42792e-05	1332
bin	2.43504e-05	1354
bin	2.44216e-05	1313
bin	2.44928e-05	1348
bin	2.4564e-05	1320
bin	2.46352e-05	1318
bin	2.47064e-05	1290
bin	2.47776e-05	1261
bin	2.48488e-05	1290
bin	2.492e-05	1279
bin	2.49912e-05	1286
bin	2.50624e-05	1306
bin	2.51336e-05	1285
bin	2.52048e-05	1348
bin	2.5276e-05	1314
bin	2.53472e-05	1314
bin	2.54184e-05	1330
bin	2.54896e-05	1246
bin	2.55608e-05	1282
bin	2.5632e-05	1268
bin	2.57032e-05	1258
bin	2.57744e-05	1261
bin	2.58456e-05	1338
bin	2.59168e-05	1326
bin	2.5988e-05	1305
bin	2.60592e-05	1362
bin	2.61304e-05	1285
bin	2.62016e-05	1269
bin	2.62728e-05	1319
bin	2.6344e-05	1331
bin	2.64152e-05	1365
bin	2.64864e-05	1320
bin	2.65576e-05	1232
bin	2.66288e-05	1240
bin	2.67e-05	1255
bin	2.67712e-05	1292
bin	2.68424e-05	1313
bin	2.69136e-05	1274
bin	2.69848e-05	1273
bin	2.7056e-05	1172
bin	2.71272e-05	1223
bin	2.71984e-05	1241
bin	2.72696e-05	1248
bin	2.73408e-05	1221
bin	2.7412e-05	1248
bin	2.74832e-05	1311
bin	2.75544e-05	1281
bin	2.76256e-05	1285
bin	2.76968e-05	1310
bin	2.7768e-05	1300
bin	2.78392e-05	1212
bin	2.79104e-05	1244
bin	2.79816e-05	1210
bin	2.80528e-05	1221
bin	2.8124e-05	1198
bin	2.81952e-05	1172
bin	2.82664e-05	1266
bin	2.83376e-05	1222
bin	2.84088e-05	1286
bin	2.848e-05	1210
bin	2.85512e-05	1298
bin	2.86224e-05	1298
bin	2.86936e-05	1292
bin	2.87648e-05	1257
bin	2.8836e-05	1270
bin	2.89072e-05	1248
bin	2.89784e-05	1252
bin	2.90496e-05	1214
bin	2.91208e-05	1212
bin	2.9192e-05	1213
bin	2.92632e-05	1224
bin	2.93344e-05	1260
bin	2.94056e-05	1211
bin	2.94768e-05	1182
bin	2.9548e-05	1174
bin	2.96192e-05	1186
bin	2.96904e-05	1192
bin	2.97616e-05	1181
bin	2.98328e-05	1267
bin	2.9904e-05	1231
bin	2.99752e-05	1217
bin	3.00464e-05	1192
bin	3.01176e-05	1205
bin	3.01888e-05	1127
bin	3.026e-05	1187
bin	3.03312e-05	1143
bin	3.04024e-05	1155
bin	3.04736e-05	1189
bin	3.05448e-05	1251
bin	3.0616e-05	1217
bin	3.06872e-05	1250
bin	3.07584e-05	1305
bin	3.08296e-05	1244
bin	3.09008e-05	1307
bin	3.0972e-05	1287
bin	3.10432e-05	1321
bin	3.11144e-05	1269
bin	3.11856e-05	1275
bin	3.12568e-05	1291
bin	3.1328e-05	1291
bin	3.13992e-05	1261
bin	3.14704e-05	1232
bin	3.15416e-05	1241
bin	3.16128e-05	1223
bin	3.1684e-05	1269
bin	3.17552e-05	1244
bin	3.18264e-05	1311
bin	3.18976e-05	1236
bin	3.19688e-05	1267
bin	3.204e-05	1247
bin	3.21112e-05	1227
bin	3.21824e-05	1218
bin	3.22536e-05	1208
bin	3.23248e-05	1202
bin	3.2396e-05	1231
bin	3.24672e-05	1260
bin	3.25384e-05	1219
bin	3.26096e-05	1288
bin	3.26808e-05	1240
bin	3.2752e-05	1249
bin	3.28232e-05	1194
bin	3.28944e-05	1251
bin	3.29656e-05	1180
bin	3.30368e-05	1226
bin	3.3108e-05	1232
bin	3.31792e-05	1248
bin	3.32504e-05	1200
bin	3.33216e-05	1184
bin	3.33928e-05	1234
bin	3.3464e-05	1242
bin	3.35352e-05	1304
bin	3.36064e-05	1311
bin	3.36776e-05	1276
bin	3.37488e-05	1224
bin	3.382e-05	1237
bin	3.38912e-05	1277
bin	3.39624e-05	1235
bin	3.40336e-05	1194
bin	3.41048e-05	1230
bin	3.4176e-05	1221
bin	3.42472e-05	1227
bin	3.43184e-05	1264
bin	3.43896e-05	1203
bin	3.44608e-05	1193
bin	3.4532e-05	1211
bin	3.46032e-05	1255
bin	3.46744e-05	1210
bin	3.47456e-05	1149
bin	3.48168e-05	1153
bin	3.4888e-05	1163
bin	3.49592e-05	1123
bin	3.50304e-05	1127
bin	3.51016e-05	1095
bin	3.51728e-05	1207
bin	3.5244e-05	1178
bin	3.53152e-05	1212
bin	3.53864e-05	1166
bin	3.54576e-05	1151
bin	3.55288e-05	1168
bin	3.56e-05	4740013
statistic Torus3d_bub.timer 	"Life Times"
field count 6291456
field mean 0.0017061158812618
field stddev 0.0012111383403078
field sum 10733.95299786
field sqrsum 27.542026693158
field min 5.2e-07
field max 0.004241707993655
bin	-INF	0
bin	0	13
bin	8.544e-07	350
bin	1.7088e-06	1055
bin	2.5632e-06	1980
bin	3.4176e-06	3054
bin	4.272e-06	4054
bin	5.1264e-06	5095
bin	5.9808e-06	6164
bin	6.8352e-06	7369
bin	7.6896e-06	8433
bin	8.544e-06	9845
bin	9.3984e-06	11150
bin	1.02528e-05	12182
bin	1.11072e-05	12665
bin	1.19616e-05	13889
bin	1.2816e-05	14664
bin	1.36704e-05	15360
bin	1.45248e-05	16072
bin	1.53792e-05	16794
bin	1.62336e-05	17523
bin	1.7088e-05	18327
bin	1.79424e-05	19079
bin	1.87968e-05	19708
bin	1.96512e-05	20672
bin	2.05056e-05	21332
bin	2.136e-05	22231
bin	2.22144e-05	23142
bin	2.30688e-05	24135
bin	2.39232e-05	24844
bin	2.47776e-05	25123
bin	2.5632e-05	24707
bin	2.64864e-05	23719
bin	2.73408e-05	22565
bin	2.81952e-05	21481
bin	2.90496e-05	20122
bin	2.9904e-05	18947
bin	3.07584e-05	17419
bin	3.16128e-05	16083
bin	3.24672e-05	14798
bin	3.33216e-05	13831
bin	3.4176e-05	12763
bin	3.50304e-05	11336
bin	3.58848e-05	10680
bin	3.67392e-05	9813
bin	3.75936e-05	9041
bin	3.8448e-05	8587
bin	3.93024e-05	8215
bin	4.01568e-05	7875
bin	4.10112e-05	7532
bin	4.18656e-05	7356
bin	4.272e-05	7247
bin	4.35744e-05	6747
bin	4.44288e-05	6658
bin	4.52832e-05	6554
bin	4.61376e-05	6595
bin	4.6992e-05	6601
bin	4.78464e-05	6229
bin	4.87008e-05	6304
bin	4.95552e-05	6211
bin	5.04096e-05	6141
bin	5.1264e-05	5868
bin	5.21184e-05	5644
bin	5.29728e-05	5562
bin	5.38272e-05	5279
bin	5.46816e-05	5101
bin	5.5536e-05	5027
bin	5.63904e-05	4736
bin	5.72448e-05	4497
bin	5.80992e-05	4363
bin	5.89536e-05	4282
bin	5.9808e-05	4047
bin	6.06624e-05	3939
bin	6.15168e-05	3805
bin	6.23712e-05	3815
bin	6.32256e-05	3671
bin	6.408e-05	3454
bin	6.49344e-05	3475
bin	6.57888e-05	3427
bin	6.66432e-05	3384
bin	6.74976e-05	3440
bin	6.8352e-05	3360
bin	6.92064e-05	3280
bin	7.00608e-05	3313
bin	7.09152e-05	3327
bin	7.17696e-05	3266
bin	7.2624e-05	3331
bin	7.34784e-05	3390
bin	7.43328e-05	3294
bin	7.51872e-05	3301
bin	7.60416e-05	3227
bin	7.6896e-05	3229
bin	7.77504e-05	3164
bin	7.86048e-05	3162
bin	7.94592e-05	3103
bin	8.03136e-05	3192
bin	8.1168e-05	2979
bin	8.20224e-05	2909
bin	8.28768e-05	2888
bin	8.37312e-05	2865
bin	8.45856e-05	2860
bin	8.544e-05	2897
bin	8.62944e-05	2775
bin	8.71488e-05	2702
bin	8.80032e-05	2650
bin	8.88576e-05	2689
bin	8.9712e-05	2706
bin	9.05664e-05	2696
bin	9.14208e-05	2731
bin	9.22752e-05	2659
bin	9.31296e-05	2688
bin	9.3984e-05	2688
bin	9.48384e-05	2667
bin	9.56928e-05	2581
bin	9.65472e-05	2656
bin	9.74016e-05	2662
bin	9.8256e-05	2712
bin	9.91104e-05	2688
bin	9.99648e-05	2571
bin	0.0001008192	2584
bin	0.0001016736	2640
bin	0.000102528	2602
bin	0.0001033824	2560
bin	0.0001042368	2552
bin	0.0001050912	2539
bin	0.0001059456	2519
bin	0.0001068	2356
bin	0.0001076544	2305
bin	0.0001085088	2388
bin	0.0001093632	2327
bin	0.0001102176	2233
bin	0.000111072	2211
bin	0.0001119264	2157
bin	0.0001127808	2211
bin	0.0001136352	2123
bin	0.0001144896	2212
bin	0.000115344	2227
bin	0.0001161984	2217
bin	0.0001170528	2192
bin	0.0001179072	2240
bin	0.0001187616	2266
bin	0.000119616	2322
bin	0.0001204704	2266
bin	0.0001213248	2197
bin	0.0001221792	2154
bin	0.0001230336	2243
bin	0.000123888	2204
bin	0.0001247424	2157
bin	0.0001255968	2191
bin	0.0001264512	2222
bin	0.0001273056	2157
bin	0.00012816	2160
bin	0.0001290144	2139
bin	0.0001298688	2075
bin	0.0001307232	2028
bin	0.0001315776	2013
bin	0.000132432	2063
bin	0.0001332864	2036
bin	0.0001341408	1998
bin	0.0001349952	1994
bin	0.0001358496	2004
bin	0.000136704	1958
bin	0.0001375584	1934
bin	0.0001384128	1930
bin	0.0001392672	1992
bin	0.0001401216	1979
bin	0.000140976	2023
bin	0.0001418304	1999
bin	0.0001426848	1963
bin	0.0001435392	2025
bin	0.0001443936	1983
bin	0.000145248	1999
bin	0.0001461024	2000
bin	0.0001469568	1922
bin	0.0001478112	1906
bin	0.0001486656	1966
bin	0.00014952	1940
bin	0.0001503744	1914
bin	0.0001512288	1848
bin	0.0001520832	1962
bin	0.0001529376	1968
bin	0.000153792	1911
bin	0.0001546464	1977
bin	0.0001555008	1940
bin	0.0001563552	1859
bin	0.0001572096	1885
bin	0.000158064	1869
bin	0.0001589184	1865
bin	0.0001597728	1882
bin	0.0001606272	1845
bin	0.0001614816	1784
bin	0.000162336	1796
bin	0.0001631904	1805
bin	0.0001640448	1744
bin	0.0001648992	1708
bin	0.0001657536	1758
bin	0.000166608	1754
bin	0.0001674624	1749
bin	0.0001683168	1748
bin	0.0001691712	1715
bin	0.0001700256	1784
bin	0.00017088	1823
bin	0.0001717344	1786
bin	0.0001725888	1863
bin	0.0001734432	1807
bin	0.0001742976	1793
bin	0.000175152	1809
bin	0.0001760064	1752
bin	0.0001768608	1714
bin	0.0001777152	1742
bin	0.0001785696	1708
bin	0.000179424	1703
bin	0.0001802784	1687
bin	0.0001811328	1661
bin	0.0001819872	1667
bin	0.0001828416	1631
bin	0.000183696	1676
bin	0.0001845504	1698
bin	0.0001854048	1648
bin	0.0001862592	1631
bin	0.0001871136	1639
bin	0.000187968	1640
bin	0.0001888224	1562
bin	0.0001896768	1535
bin	0.0001905312	1589
bin	0.0001913856	1540
bin	0.00019224	1524
bin	0.0001930944	1555
bin	0.0001939488	1511
bin	0.0001948032	1595
bin	0.0001956576	1527
bin	0.000196512	1639
bin	0.0001973664	1627
bin	0.0001982208	1625
bin	0.0001990752	1625
bin	0.0001999296	1590
bin	0.000200784	1550
bin	0.0002016384	1575
bin	0.0002024928	1657
bin	0.0002033472	1527
bin	0.0002042016	1538
bin	0.000205056	1486
bin	0.0002059104	1497
bin	0.0002067648	1511
bin	0.0002076192	1557
bin	0.0002084736	1615
bin	0.000209328	1503
bin	0.0002101824	1514
bin	0.0002110368	1445
bin	0.0002118912	1455
bin	0.0002127456	1531
bin	0.0002136	1522
bin	0.0002144544	1538
bin	0.0002153088	1533
bin	0.0002161632	1499
bin	0.0002170176	1479
bin	0.000217872	1523
bin	0.0002187264	1562
bin	0.0002195808	1512
bin	0.0002204352	1522
bin	0.0002212896	1515
bin	0.000222144	1551
bin	0.0002229984	1463
bin	0.0002238528	1565
bin	0.0002247072	1595
bin	0.0002255616	1566
bin	0.000226416	1575
bin	0.0002272704	1582
bin	0.0002281248	1511
bin	0.0002289792	1560
bin	0.0002298336	1556
bin	0.000230688	1525
bin	0.0002315424	1495
bin	0.0002323968	1467
bin	0.0002332512	1388
bin	0.0002341056	1458
bin	0.00023496	1486
bin	0.0002358144	1519
bin	0.0002366688	1494
bin	0.0002375232	1473
bin	0.0002383776	1443
bin	0.000239232	1357
bin	0.0002400864	1351
bin	0.0002409408	1436
bin	0.0002417952	1499
bin	0.0002426496	1382
bin	0.000243504	1408
bin	0.0002443584	1393
bin	0.0002452128	1399
bin	0.0002460672	1487
bin	0.0002469216	1426
bin	0.000247776	1439
bin	0.0002486304	1447
bin	0.0002494848	1499
bin	0.0002503392	1507
bin	0.0002511936	1533
bin	0.000252048	1489
bin	0.0002529024	1474
bin	0.0002537568	1438
bin	0.0002546112	1433
bin	0.0002554656	1456
bin	0.00025632	1433
bin	0.0002571744	1413
bin	0.0002580288	1439
bin	0.0002588832	1371
bin	0.0002597376	1371
bin	0.000260592	1383
bin	0.0002614464	1367
bin	0.0002623008	1442
bin	0.0002631552	1453
bin	0.0002640096	1463
bin	0.000264864	1409
bin	0.0002657184	1372
bin	0.0002665728	1445
bin	0.0002674272	1459
bin	0.0002682816	1454
bin	0.000269136	1422
bin	0.0002699904	1437
bin	0.0002708448	1460
bin	0.0002716992	1449
bin	0.0002725536	1398
bin	0.000273408	1389
bin	0.0002742624	1395
bin	0.0002751168	1407
bin	0.0002759712	1369
bin	0.0002768256	1396
bin	0.00027768	1403
bin	0.0002785344	1395
bin	0.0002793888	1408
bin	0.0002802432	1464
bin	0.0002810976	1467
bin	0.000281952	1402
bin	0.0002828064	1368
bin	0.0002836608	1427
bin	0.0002845152	1390
bin	0.0002853696	1398
bin	0.000286224	1415
bin	0.0002870784	1522
bin	0.0002879328	1406
bin	0.0002887872	1387
bin	0.0002896416	1374
bin	0.000290496	1381
bin	0.0002913504	1395
bin	0.0002922048	1412
bin	0.0002930592	1380
bin	0.0002939136	1416
bin	0.000294768	1413
bin	0.0002956224	1378
bin	0.0002964768	1336
bin	0.0002973312	1402
bin	0.0002981856	1429
bin	0.00029904	1402
bin	0.0002998944	1372
bin	0.0003007488	1367
bin	0.0003016032	1526
bin	0.0003024576	1426
bin	0.000303312	1492
bin	0.0003041664	1413
bin	0.0003050208	1436
bin	0.0003058752	1333
bin	0.0003067296	1404
bin	0.000307584	1301
bin	0.0003084384	1317
bin	0.0003092928	1380
bin	0.0003101472	1371
bin	0.0003110016	1377
bin	0.000311856	1320
bin	0.0003127104	1380
bin	0.0003135648	1320
bin	0.0003144192	1332
bin	0.0003152736	1354
bin	0.000316128	1380
bin	0.0003169824	1354
bin	0.0003178368	1374
bin	0.0003186912	1338
bin	0.0003195456	1367
bin	0.0003204	1305
bin	0.0003212544	1308
bin	0.0003221088	1357
bin	0.0003229632	1291
bin	0.0003238176	1292
bin	0.000324672	1281
bin	0.0003255264	1285
bin	0.0003263808	1251
bin	0.0003272352	1281
bin	0.0003280896	1319
bin	0.000328944	1299
bin	0.0003297984	1298
bin	0.0003306528	1249
bin	0.0003315072	1224
bin	0.0003323616	1241
bin	0.000333216	1222
bin	0.0003340704	1275
bin	0.0003349248	1230
bin	0.0003357792	1209
bin	0.0003366336	1175
bin	0.000337488	1221
bin	0.0003383424	1261
bin	0.0003391968	1195
bin	0.0003400512	1214
bin	0.0003409056	1187
bin	0.00034176	1187
bin	0.0003426144	1198
bin	0.0003434688	1226
bin	0.0003443232	1194
bin	0.0003451776	1222
bin	0.000346032	1173
bin	0.0003468864	1147
bin	0.0003477408	1191
bin	0.0003485952	1165
bin	0.0003494496	1158
bin	0.000350304	1148
bin	0.0003511584	1154
bin	0.0003520128	1151
bin	0.0003528672	1077
bin	0.0003537216	1077
bin	0.000354576	1035
bin	0.0003554304	1054
bin	0.0003562848	1018
bin	0.0003571392	1070
bin	0.0003579936	1088
bin	0.000358848	1115
bin	0.0003597024	1059
bin	0.0003605568	1063
bin	0.0003614112	1124
bin	0.0003622656	1121
bin	0.00036312	1040
bin	0.0003639744	1090
bin	0.0003648288	1088
bin	0.0003656832	1084
bin	0.0003665376	1039
bin	0.000367392	1116
bin	0.0003682464	1098
bin	0.0003691008	1053
bin	0.0003699552	1140
bin	0.0003708096	1068
bin	0.000371664	1088
bin	0.0003725184	1057
bin	0.0003733728	1077
bin	0.0003742272	1095
bin	0.0003750816	1073
bin	0.000375936	1033
bin	0.0003767904	1079
bin	0.0003776448	1045
bin	0.0003784992	1030
bin	0.0003793536	1055
bin	0.000380208	1086
bin	0.0003810624	1018
bin	0.0003819168	1004
bin	0.0003827712	967
bin	0.0003836256	1010
bin	0.00038448	1037
bin	0.0003853344	1040
bin	0.0003861888	992
bin	0.0003870432	1009
bin	0.0003878976	1043
bin	0.000388752	1015
bin	0.0003896064	1069
bin	0.0003904608	1081
bin	0.0003913152	1099
bin	0.0003921696	1034
bin	0.000393024	1017
bin	0.0003938784	1058
bin	0.0003947328	1032
bin	0.0003955872	1059
bin	0.0003964416	1094
bin	0.000397296	1010
bin	0.0003981504	1024
bin	0.0003990048	1016
bin	0.0003998592	1072
bin	0.0004007136	1104
bin	0.000401568	1045
bin	0.0004024224	1055
bin	0.0004032768	1080
bin	0.0004041312	1051
bin	0.0004049856	1022
bin	0.00040584	980
bin	0.0004066944	988
bin	0.0004075488	1008
bin	0.0004084032	961
bin	0.0004092576	939
bin	0.000410112	962
bin	0.0004109664	946
bin	0.0004118208	910
bin	0.0004126752	959
bin	0.0004135296	959
bin	0.000414384	968
bin	0.0004152384	944
bin	0.0004160928	993
bin	0.0004169472	994
bin	0.0004178016	982
bin	0.000418656	912
bin	0.0004195104	980
bin	0.0004203648	1005
bin	0.0004212192	919
bin	0.0004220736	938
bin	0.000422928	997
bin	0.0004237824	951
bin	0.0004246368	946
bin	0.0004254912	936
bin	0.0004263456	938
bin	0.0004272	4777644
