version 2
run Permutation-12-20120710-20:34:37-28068
attr alg 0
attr buf 8
attr configname Permutation
attr datetime 20120710-20:34:37
attr delta 0.8
attr experiment Permutation
attr ext true
attr inifile altro.ini
attr iterationvars "$buf=8, $ext=true, $ofedge=1, $delta=0.8, $alg=0"
attr iterationvars2 "$buf=8, $ext=true, $ofedge=1, $delta=0.8, $alg=0, $repetition=0"
attr measurement "$buf=8, $ext=true, $ofedge=1, $delta=0.8, $alg=0"
attr network Torus3d_bub
attr ofedge 1
attr processid 28068
attr repetition 0
attr replication #0
attr resultdir altro-results
attr runnumber 12
attr seedset 12

scalar . 	alg 	0
scalar . 	buf 	8
scalar . 	delta 	0.8
scalar . 	ofedge 	1
scalar Torus3d_bub.timer 	#endTime 	0.002313085333333
scalar Torus3d_bub.timer 	#totalHops 	76339200
scalar Torus3d_bub.timer 	#totalPacks 	6291456
scalar Torus3d_bub.timer 	#totalDerouted 	0
scalar Torus3d_bub.timer 	#totalOutFlanked 	0
scalar Torus3d_bub.timer 	#totalCQRed 	0
scalar Torus3d_bub.timer 	#LB 	0.000786432
scalar Torus3d_bub.timer 	#ratio 	0.33999264474467
statistic Torus3d_bub.timer 	"Hop Times"
field count 6291456
field mean 3.7398863086197e-05
field stddev 4.9979144306551e-05
field sum 235.29330155683
field sqrsum 0.024515220940871
field min 4.04962962e-07
field max 0.001154027166666
bin	-INF	0
bin	0	0
bin	7.12e-08	0
bin	1.424e-07	0
bin	2.136e-07	0
bin	2.848e-07	0
bin	3.56e-07	48
bin	4.272e-07	1592
bin	4.984e-07	5430
bin	5.696e-07	9232
bin	6.408e-07	13704
bin	7.12e-07	17865
bin	7.832e-07	21899
bin	8.544e-07	25425
bin	9.256e-07	28524
bin	9.968e-07	31508
bin	1.068e-06	34351
bin	1.1392e-06	37093
bin	1.2104e-06	40855
bin	1.2816e-06	44373
bin	1.3528e-06	49207
bin	1.424e-06	54304
bin	1.4952e-06	59659
bin	1.5664e-06	63671
bin	1.6376e-06	67439
bin	1.7088e-06	70281
bin	1.78e-06	71986
bin	1.8512e-06	72359
bin	1.9224e-06	72325
bin	1.9936e-06	70469
bin	2.0648e-06	68197
bin	2.136e-06	65281
bin	2.2072e-06	62664
bin	2.2784e-06	59325
bin	2.3496e-06	56224
bin	2.4208e-06	52795
bin	2.492e-06	50080
bin	2.5632e-06	46729
bin	2.6344e-06	43882
bin	2.7056e-06	41174
bin	2.7768e-06	38747
bin	2.848e-06	36231
bin	2.9192e-06	34400
bin	2.9904e-06	32403
bin	3.0616e-06	30387
bin	3.1328e-06	29011
bin	3.204e-06	27494
bin	3.2752e-06	26148
bin	3.3464e-06	24811
bin	3.4176e-06	23447
bin	3.4888e-06	22535
bin	3.56e-06	21406
bin	3.6312e-06	20780
bin	3.7024e-06	19690
bin	3.7736e-06	19086
bin	3.8448e-06	18361
bin	3.916e-06	17567
bin	3.9872e-06	17041
bin	4.0584e-06	16319
bin	4.1296e-06	15620
bin	4.2008e-06	15204
bin	4.272e-06	14452
bin	4.3432e-06	14169
bin	4.4144e-06	13759
bin	4.4856e-06	13235
bin	4.5568e-06	12895
bin	4.628e-06	12659
bin	4.6992e-06	12511
bin	4.7704e-06	12153
bin	4.8416e-06	11885
bin	4.9128e-06	11640
bin	4.984e-06	11251
bin	5.0552e-06	10904
bin	5.1264e-06	10797
bin	5.1976e-06	10631
bin	5.2688e-06	10371
bin	5.34e-06	10285
bin	5.4112e-06	9936
bin	5.4824e-06	9547
bin	5.5536e-06	9564
bin	5.6248e-06	9287
bin	5.696e-06	9296
bin	5.7672e-06	9050
bin	5.8384e-06	9008
bin	5.9096e-06	8829
bin	5.9808e-06	8970
bin	6.052e-06	8475
bin	6.1232e-06	8610
bin	6.1944e-06	8333
bin	6.2656e-06	8346
bin	6.3368e-06	8163
bin	6.408e-06	8188
bin	6.4792e-06	7865
bin	6.5504e-06	7635
bin	6.6216e-06	7734
bin	6.6928e-06	7481
bin	6.764e-06	7385
bin	6.8352e-06	7282
bin	6.9064e-06	7202
bin	6.9776e-06	7253
bin	7.0488e-06	6954
bin	7.12e-06	7018
bin	7.1912e-06	7063
bin	7.2624e-06	6831
bin	7.3336e-06	6673
bin	7.4048e-06	6696
bin	7.476e-06	6663
bin	7.5472e-06	6549
bin	7.6184e-06	6473
bin	7.6896e-06	6246
bin	7.7608e-06	6287
bin	7.832e-06	6263
bin	7.9032e-06	6202
bin	7.9744e-06	6078
bin	8.0456e-06	6087
bin	8.1168e-06	6091
bin	8.188e-06	5962
bin	8.2592e-06	5906
bin	8.3304e-06	5815
bin	8.4016e-06	5877
bin	8.4728e-06	5944
bin	8.544e-06	5854
bin	8.6152e-06	5689
bin	8.6864e-06	5510
bin	8.7576e-06	5606
bin	8.8288e-06	5495
bin	8.9e-06	5485
bin	8.9712e-06	5411
bin	9.0424e-06	5561
bin	9.1136e-06	5587
bin	9.1848e-06	5508
bin	9.256e-06	5657
bin	9.3272e-06	5502
bin	9.3984e-06	5339
bin	9.4696e-06	5422
bin	9.5408e-06	5368
bin	9.612e-06	5332
bin	9.6832e-06	5312
bin	9.7544e-06	5318
bin	9.8256e-06	5286
bin	9.8968e-06	5241
bin	9.968e-06	5186
bin	1.00392e-05	5126
bin	1.01104e-05	5187
bin	1.01816e-05	4900
bin	1.02528e-05	4931
bin	1.0324e-05	4850
bin	1.03952e-05	4829
bin	1.04664e-05	4850
bin	1.05376e-05	4904
bin	1.06088e-05	4853
bin	1.068e-05	4905
bin	1.07512e-05	4870
bin	1.08224e-05	4934
bin	1.08936e-05	4902
bin	1.09648e-05	4784
bin	1.1036e-05	4724
bin	1.11072e-05	4773
bin	1.11784e-05	4754
bin	1.12496e-05	4679
bin	1.13208e-05	4536
bin	1.1392e-05	4792
bin	1.14632e-05	4684
bin	1.15344e-05	4621
bin	1.16056e-05	4628
bin	1.16768e-05	4553
bin	1.1748e-05	4671
bin	1.18192e-05	4597
bin	1.18904e-05	4545
bin	1.19616e-05	4483
bin	1.20328e-05	4537
bin	1.2104e-05	4381
bin	1.21752e-05	4499
bin	1.22464e-05	4383
bin	1.23176e-05	4285
bin	1.23888e-05	4234
bin	1.246e-05	4204
bin	1.25312e-05	4234
bin	1.26024e-05	4240
bin	1.26736e-05	4322
bin	1.27448e-05	4295
bin	1.2816e-05	4278
bin	1.28872e-05	4109
bin	1.29584e-05	4308
bin	1.30296e-05	4189
bin	1.31008e-05	4175
bin	1.3172e-05	4146
bin	1.32432e-05	4088
bin	1.33144e-05	4078
bin	1.33856e-05	4057
bin	1.34568e-05	4074
bin	1.3528e-05	3987
bin	1.35992e-05	4016
bin	1.36704e-05	4046
bin	1.37416e-05	3914
bin	1.38128e-05	3974
bin	1.3884e-05	4069
bin	1.39552e-05	3924
bin	1.40264e-05	4023
bin	1.40976e-05	4012
bin	1.41688e-05	3918
bin	1.424e-05	3863
bin	1.43112e-05	3757
bin	1.43824e-05	3870
bin	1.44536e-05	4012
bin	1.45248e-05	3833
bin	1.4596e-05	3954
bin	1.46672e-05	3858
bin	1.47384e-05	3720
bin	1.48096e-05	3719
bin	1.48808e-05	3749
bin	1.4952e-05	3725
bin	1.50232e-05	3692
bin	1.50944e-05	3711
bin	1.51656e-05	3658
bin	1.52368e-05	3769
bin	1.5308e-05	3609
bin	1.53792e-05	3684
bin	1.54504e-05	3669
bin	1.55216e-05	3595
bin	1.55928e-05	3593
bin	1.5664e-05	3601
bin	1.57352e-05	3607
bin	1.58064e-05	3610
bin	1.58776e-05	3667
bin	1.59488e-05	3507
bin	1.602e-05	3585
bin	1.60912e-05	3403
bin	1.61624e-05	3434
bin	1.62336e-05	3501
bin	1.63048e-05	3553
bin	1.6376e-05	3449
bin	1.64472e-05	3393
bin	1.65184e-05	3433
bin	1.65896e-05	3453
bin	1.66608e-05	3569
bin	1.6732e-05	3471
bin	1.68032e-05	3397
bin	1.68744e-05	3365
bin	1.69456e-05	3372
bin	1.70168e-05	3513
bin	1.7088e-05	3383
bin	1.71592e-05	3413
bin	1.72304e-05	3362
bin	1.73016e-05	3326
bin	1.73728e-05	3411
bin	1.7444e-05	3416
bin	1.75152e-05	3365
bin	1.75864e-05	3389
bin	1.76576e-05	3376
bin	1.77288e-05	3364
bin	1.78e-05	3281
bin	1.78712e-05	3220
bin	1.79424e-05	3334
bin	1.80136e-05	3171
bin	1.80848e-05	3249
bin	1.8156e-05	3158
bin	1.82272e-05	3174
bin	1.82984e-05	3162
bin	1.83696e-05	3227
bin	1.84408e-05	3277
bin	1.8512e-05	3297
bin	1.85832e-05	3255
bin	1.86544e-05	3216
bin	1.87256e-05	3169
bin	1.87968e-05	3167
bin	1.8868e-05	3228
bin	1.89392e-05	3200
bin	1.90104e-05	3224
bin	1.90816e-05	3240
bin	1.91528e-05	3214
bin	1.9224e-05	3256
bin	1.92952e-05	3115
bin	1.93664e-05	3080
bin	1.94376e-05	3200
bin	1.95088e-05	3143
bin	1.958e-05	3203
bin	1.96512e-05	3125
bin	1.97224e-05	3193
bin	1.97936e-05	3061
bin	1.98648e-05	3174
bin	1.9936e-05	3253
bin	2.00072e-05	3120
bin	2.00784e-05	3294
bin	2.01496e-05	3200
bin	2.02208e-05	3121
bin	2.0292e-05	3088
bin	2.03632e-05	3160
bin	2.04344e-05	3032
bin	2.05056e-05	3066
bin	2.05768e-05	3021
bin	2.0648e-05	3126
bin	2.07192e-05	3036
bin	2.07904e-05	3049
bin	2.08616e-05	3094
bin	2.09328e-05	2963
bin	2.1004e-05	2973
bin	2.10752e-05	3070
bin	2.11464e-05	3043
bin	2.12176e-05	2956
bin	2.12888e-05	2919
bin	2.136e-05	2920
bin	2.14312e-05	2985
bin	2.15024e-05	3083
bin	2.15736e-05	2945
bin	2.16448e-05	3034
bin	2.1716e-05	2955
bin	2.17872e-05	2960
bin	2.18584e-05	2957
bin	2.19296e-05	2960
bin	2.20008e-05	2970
bin	2.2072e-05	2931
bin	2.21432e-05	2815
bin	2.22144e-05	2860
bin	2.22856e-05	2842
bin	2.23568e-05	2893
bin	2.2428e-05	2831
bin	2.24992e-05	2871
bin	2.25704e-05	2934
bin	2.26416e-05	2877
bin	2.27128e-05	2933
bin	2.2784e-05	2899
bin	2.28552e-05	2918
bin	2.29264e-05	2877
bin	2.29976e-05	2829
bin	2.30688e-05	2884
bin	2.314e-05	2774
bin	2.32112e-05	2894
bin	2.32824e-05	2894
bin	2.33536e-05	2887
bin	2.34248e-05	2921
bin	2.3496e-05	2880
bin	2.35672e-05	2962
bin	2.36384e-05	2891
bin	2.37096e-05	2917
bin	2.37808e-05	2848
bin	2.3852e-05	2978
bin	2.39232e-05	2876
bin	2.39944e-05	2876
bin	2.40656e-05	2907
bin	2.41368e-05	2913
bin	2.4208e-05	2792
bin	2.42792e-05	2950
bin	2.43504e-05	2891
bin	2.44216e-05	2821
bin	2.44928e-05	2878
bin	2.4564e-05	2913
bin	2.46352e-05	2925
bin	2.47064e-05	2784
bin	2.47776e-05	2867
bin	2.48488e-05	2885
bin	2.492e-05	2965
bin	2.49912e-05	2934
bin	2.50624e-05	2863
bin	2.51336e-05	2910
bin	2.52048e-05	2910
bin	2.5276e-05	2935
bin	2.53472e-05	2809
bin	2.54184e-05	2914
bin	2.54896e-05	2859
bin	2.55608e-05	2858
bin	2.5632e-05	2935
bin	2.57032e-05	2945
bin	2.57744e-05	2831
bin	2.58456e-05	2916
bin	2.59168e-05	2882
bin	2.5988e-05	2815
bin	2.60592e-05	2902
bin	2.61304e-05	2788
bin	2.62016e-05	2739
bin	2.62728e-05	2892
bin	2.6344e-05	2834
bin	2.64152e-05	2804
bin	2.64864e-05	2795
bin	2.65576e-05	2911
bin	2.66288e-05	2895
bin	2.67e-05	2928
bin	2.67712e-05	2819
bin	2.68424e-05	2867
bin	2.69136e-05	2888
bin	2.69848e-05	2839
bin	2.7056e-05	2954
bin	2.71272e-05	2875
bin	2.71984e-05	2674
bin	2.72696e-05	2814
bin	2.73408e-05	2816
bin	2.7412e-05	2828
bin	2.74832e-05	2857
bin	2.75544e-05	2829
bin	2.76256e-05	2941
bin	2.76968e-05	2899
bin	2.7768e-05	2942
bin	2.78392e-05	2980
bin	2.79104e-05	2965
bin	2.79816e-05	2975
bin	2.80528e-05	2933
bin	2.8124e-05	2884
bin	2.81952e-05	2961
bin	2.82664e-05	2883
bin	2.83376e-05	2863
bin	2.84088e-05	2810
bin	2.848e-05	2834
bin	2.85512e-05	2872
bin	2.86224e-05	2676
bin	2.86936e-05	2812
bin	2.87648e-05	2865
bin	2.8836e-05	2860
bin	2.89072e-05	2858
bin	2.89784e-05	2721
bin	2.90496e-05	2835
bin	2.91208e-05	2800
bin	2.9192e-05	2807
bin	2.92632e-05	2792
bin	2.93344e-05	2753
bin	2.94056e-05	2790
bin	2.94768e-05	2761
bin	2.9548e-05	2718
bin	2.96192e-05	2723
bin	2.96904e-05	2818
bin	2.97616e-05	2734
bin	2.98328e-05	2902
bin	2.9904e-05	2825
bin	2.99752e-05	2806
bin	3.00464e-05	2761
bin	3.01176e-05	2742
bin	3.01888e-05	2838
bin	3.026e-05	2840
bin	3.03312e-05	2705
bin	3.04024e-05	2843
bin	3.04736e-05	2797
bin	3.05448e-05	2818
bin	3.0616e-05	2780
bin	3.06872e-05	2849
bin	3.07584e-05	2781
bin	3.08296e-05	2788
bin	3.09008e-05	2815
bin	3.0972e-05	2742
bin	3.10432e-05	2781
bin	3.11144e-05	2929
bin	3.11856e-05	2730
bin	3.12568e-05	2778
bin	3.1328e-05	2788
bin	3.13992e-05	2847
bin	3.14704e-05	2865
bin	3.15416e-05	2820
bin	3.16128e-05	2804
bin	3.1684e-05	2792
bin	3.17552e-05	2730
bin	3.18264e-05	2647
bin	3.18976e-05	2616
bin	3.19688e-05	2643
bin	3.204e-05	2759
bin	3.21112e-05	2737
bin	3.21824e-05	2709
bin	3.22536e-05	2654
bin	3.23248e-05	2687
bin	3.2396e-05	2602
bin	3.24672e-05	2664
bin	3.25384e-05	2616
bin	3.26096e-05	2630
bin	3.26808e-05	2706
bin	3.2752e-05	2669
bin	3.28232e-05	2679
bin	3.28944e-05	2765
bin	3.29656e-05	2690
bin	3.30368e-05	2752
bin	3.3108e-05	2681
bin	3.31792e-05	2633
bin	3.32504e-05	2735
bin	3.33216e-05	2736
bin	3.33928e-05	2716
bin	3.3464e-05	2702
bin	3.35352e-05	2724
bin	3.36064e-05	2717
bin	3.36776e-05	2698
bin	3.37488e-05	2634
bin	3.382e-05	2778
bin	3.38912e-05	2774
bin	3.39624e-05	2708
bin	3.40336e-05	2585
bin	3.41048e-05	2704
bin	3.4176e-05	2555
bin	3.42472e-05	2698
bin	3.43184e-05	2685
bin	3.43896e-05	2788
bin	3.44608e-05	2789
bin	3.4532e-05	2729
bin	3.46032e-05	2681
bin	3.46744e-05	2619
bin	3.47456e-05	2691
bin	3.48168e-05	2715
bin	3.4888e-05	2747
bin	3.49592e-05	2755
bin	3.50304e-05	2748
bin	3.51016e-05	2644
bin	3.51728e-05	2696
bin	3.5244e-05	2724
bin	3.53152e-05	2780
bin	3.53864e-05	2704
bin	3.54576e-05	2575
bin	3.55288e-05	2683
bin	3.56e-05	2477013
statistic Torus3d_bub.timer 	"Life Times"
field count 6291456
field mean 0.00040203706406399
field stddev 0.00041168966979554
field sum 2529.3984989278
field sqrsum 2.0832404886768
field min 7.33331845e-07
field max 0.002308666333333
bin	-INF	0
bin	0	39
bin	8.544e-07	842
bin	1.7088e-06	2768
bin	2.5632e-06	5206
bin	3.4176e-06	8463
bin	4.272e-06	11532
bin	5.1264e-06	14821
bin	5.9808e-06	17930
bin	6.8352e-06	21080
bin	7.6896e-06	24208
bin	8.544e-06	27669
bin	9.3984e-06	30607
bin	1.02528e-05	33594
bin	1.11072e-05	35901
bin	1.19616e-05	38069
bin	1.2816e-05	40587
bin	1.36704e-05	42768
bin	1.45248e-05	45123
bin	1.53792e-05	46695
bin	1.62336e-05	48410
bin	1.7088e-05	50568
bin	1.79424e-05	52625
bin	1.87968e-05	54015
bin	1.96512e-05	56216
bin	2.05056e-05	58092
bin	2.136e-05	59668
bin	2.22144e-05	61783
bin	2.30688e-05	62969
bin	2.39232e-05	63930
bin	2.47776e-05	64766
bin	2.5632e-05	64081
bin	2.64864e-05	63255
bin	2.73408e-05	61958
bin	2.81952e-05	60575
bin	2.90496e-05	58401
bin	2.9904e-05	56484
bin	3.07584e-05	53572
bin	3.16128e-05	49673
bin	3.24672e-05	45679
bin	3.33216e-05	41778
bin	3.4176e-05	38365
bin	3.50304e-05	35394
bin	3.58848e-05	32396
bin	3.67392e-05	29937
bin	3.75936e-05	27573
bin	3.8448e-05	25539
bin	3.93024e-05	23723
bin	4.01568e-05	21635
bin	4.10112e-05	20170
bin	4.18656e-05	18493
bin	4.272e-05	17645
bin	4.35744e-05	16430
bin	4.44288e-05	15562
bin	4.52832e-05	14991
bin	4.61376e-05	14290
bin	4.6992e-05	13766
bin	4.78464e-05	13381
bin	4.87008e-05	12994
bin	4.95552e-05	12629
bin	5.04096e-05	12466
bin	5.1264e-05	12186
bin	5.21184e-05	12147
bin	5.29728e-05	11947
bin	5.38272e-05	11917
bin	5.46816e-05	11762
bin	5.5536e-05	11780
bin	5.63904e-05	11757
bin	5.72448e-05	11866
bin	5.80992e-05	11671
bin	5.89536e-05	11505
bin	5.9808e-05	11518
bin	6.06624e-05	11468
bin	6.15168e-05	11456
bin	6.23712e-05	11298
bin	6.32256e-05	11259
bin	6.408e-05	11033
bin	6.49344e-05	10697
bin	6.57888e-05	10213
bin	6.66432e-05	10162
bin	6.74976e-05	9885
bin	6.8352e-05	9330
bin	6.92064e-05	9136
bin	7.00608e-05	8832
bin	7.09152e-05	8656
bin	7.17696e-05	8296
bin	7.2624e-05	8027
bin	7.34784e-05	7882
bin	7.43328e-05	7732
bin	7.51872e-05	7571
bin	7.60416e-05	7329
bin	7.6896e-05	7201
bin	7.77504e-05	6993
bin	7.86048e-05	6795
bin	7.94592e-05	6641
bin	8.03136e-05	6541
bin	8.1168e-05	6616
bin	8.20224e-05	6517
bin	8.28768e-05	6527
bin	8.37312e-05	6589
bin	8.45856e-05	6540
bin	8.544e-05	6514
bin	8.62944e-05	6508
bin	8.71488e-05	6534
bin	8.80032e-05	6552
bin	8.88576e-05	6722
bin	8.9712e-05	6688
bin	9.05664e-05	6636
bin	9.14208e-05	6704
bin	9.22752e-05	6782
bin	9.31296e-05	6819
bin	9.3984e-05	6744
bin	9.48384e-05	6729
bin	9.56928e-05	6732
bin	9.65472e-05	6528
bin	9.74016e-05	6469
bin	9.8256e-05	6346
bin	9.91104e-05	6223
bin	9.99648e-05	6077
bin	0.0001008192	5908
bin	0.0001016736	6000
bin	0.000102528	5714
bin	0.0001033824	5526
bin	0.0001042368	5333
bin	0.0001050912	5298
bin	0.0001059456	5190
bin	0.0001068	5129
bin	0.0001076544	5066
bin	0.0001085088	5067
bin	0.0001093632	5019
bin	0.0001102176	4954
bin	0.000111072	4959
bin	0.0001119264	4957
bin	0.0001127808	4988
bin	0.0001136352	4983
bin	0.0001144896	4799
bin	0.000115344	4861
bin	0.0001161984	4952
bin	0.0001170528	5048
bin	0.0001179072	5058
bin	0.0001187616	5097
bin	0.000119616	5166
bin	0.0001204704	5233
bin	0.0001213248	5178
bin	0.0001221792	5191
bin	0.0001230336	5241
bin	0.000123888	5329
bin	0.0001247424	5232
bin	0.0001255968	5340
bin	0.0001264512	5223
bin	0.0001273056	5185
bin	0.00012816	5113
bin	0.0001290144	4843
bin	0.0001298688	5087
bin	0.0001307232	4840
bin	0.0001315776	4839
bin	0.000132432	4795
bin	0.0001332864	4611
bin	0.0001341408	4572
bin	0.0001349952	4420
bin	0.0001358496	4309
bin	0.000136704	4242
bin	0.0001375584	4233
bin	0.0001384128	4346
bin	0.0001392672	4166
bin	0.0001401216	4120
bin	0.000140976	4054
bin	0.0001418304	4019
bin	0.0001426848	4035
bin	0.0001435392	4102
bin	0.0001443936	4121
bin	0.000145248	4164
bin	0.0001461024	4083
bin	0.0001469568	4263
bin	0.0001478112	4222
bin	0.0001486656	4212
bin	0.00014952	4326
bin	0.0001503744	4293
bin	0.0001512288	4278
bin	0.0001520832	4380
bin	0.0001529376	4360
bin	0.000153792	4511
bin	0.0001546464	4475
bin	0.0001555008	4507
bin	0.0001563552	4443
bin	0.0001572096	4445
bin	0.000158064	4271
bin	0.0001589184	4386
bin	0.0001597728	4236
bin	0.0001606272	4096
bin	0.0001614816	4055
bin	0.000162336	3980
bin	0.0001631904	3892
bin	0.0001640448	3836
bin	0.0001648992	3835
bin	0.0001657536	3779
bin	0.000166608	3753
bin	0.0001674624	3729
bin	0.0001683168	3737
bin	0.0001691712	3532
bin	0.0001700256	3625
bin	0.00017088	3632
bin	0.0001717344	3600
bin	0.0001725888	3567
bin	0.0001734432	3658
bin	0.0001742976	3578
bin	0.000175152	3606
bin	0.0001760064	3681
bin	0.0001768608	3680
bin	0.0001777152	3640
bin	0.0001785696	3673
bin	0.000179424	3633
bin	0.0001802784	3651
bin	0.0001811328	3671
bin	0.0001819872	3738
bin	0.0001828416	3771
bin	0.000183696	3718
bin	0.0001845504	3814
bin	0.0001854048	3783
bin	0.0001862592	3846
bin	0.0001871136	3793
bin	0.000187968	3778
bin	0.0001888224	3790
bin	0.0001896768	3787
bin	0.0001905312	3712
bin	0.0001913856	3675
bin	0.00019224	3605
bin	0.0001930944	3624
bin	0.0001939488	3525
bin	0.0001948032	3543
bin	0.0001956576	3575
bin	0.000196512	3315
bin	0.0001973664	3307
bin	0.0001982208	3238
bin	0.0001990752	3174
bin	0.0001999296	3217
bin	0.000200784	3224
bin	0.0002016384	3118
bin	0.0002024928	3189
bin	0.0002033472	3202
bin	0.0002042016	3317
bin	0.000205056	3202
bin	0.0002059104	3294
bin	0.0002067648	3316
bin	0.0002076192	3409
bin	0.0002084736	3342
bin	0.000209328	3379
bin	0.0002101824	3256
bin	0.0002110368	3520
bin	0.0002118912	3394
bin	0.0002127456	3479
bin	0.0002136	3383
bin	0.0002144544	3354
bin	0.0002153088	3382
bin	0.0002161632	3435
bin	0.0002170176	3528
bin	0.000217872	3442
bin	0.0002187264	3398
bin	0.0002195808	3442
bin	0.0002204352	3389
bin	0.0002212896	3363
bin	0.000222144	3373
bin	0.0002229984	3236
bin	0.0002238528	3266
bin	0.0002247072	3082
bin	0.0002255616	3184
bin	0.000226416	3108
bin	0.0002272704	3115
bin	0.0002281248	3108
bin	0.0002289792	3100
bin	0.0002298336	2983
bin	0.000230688	3011
bin	0.0002315424	3064
bin	0.0002323968	2912
bin	0.0002332512	2925
bin	0.0002341056	2931
bin	0.00023496	2915
bin	0.0002358144	2963
bin	0.0002366688	3016
bin	0.0002375232	2970
bin	0.0002383776	3018
bin	0.000239232	3119
bin	0.0002400864	3050
bin	0.0002409408	3160
bin	0.0002417952	3033
bin	0.0002426496	3095
bin	0.000243504	3066
bin	0.0002443584	3119
bin	0.0002452128	3188
bin	0.0002460672	3105
bin	0.0002469216	3086
bin	0.000247776	3147
bin	0.0002486304	3188
bin	0.0002494848	3042
bin	0.0002503392	2998
bin	0.0002511936	3143
bin	0.000252048	3065
bin	0.0002529024	3085
bin	0.0002537568	2995
bin	0.0002546112	3008
bin	0.0002554656	2947
bin	0.00025632	2766
bin	0.0002571744	2767
bin	0.0002580288	2816
bin	0.0002588832	2809
bin	0.0002597376	2772
bin	0.000260592	2718
bin	0.0002614464	2758
bin	0.0002623008	2688
bin	0.0002631552	2693
bin	0.0002640096	2769
bin	0.000264864	2754
bin	0.0002657184	2776
bin	0.0002665728	2767
bin	0.0002674272	2778
bin	0.0002682816	2824
bin	0.000269136	2787
bin	0.0002699904	2732
bin	0.0002708448	2786
bin	0.0002716992	2743
bin	0.0002725536	2743
bin	0.000273408	2836
bin	0.0002742624	2775
bin	0.0002751168	2847
bin	0.0002759712	2931
bin	0.0002768256	2858
bin	0.00027768	2974
bin	0.0002785344	2941
bin	0.0002793888	3040
bin	0.0002802432	2995
bin	0.0002810976	2989
bin	0.000281952	2949
bin	0.0002828064	2907
bin	0.0002836608	2924
bin	0.0002845152	2959
bin	0.0002853696	2861
bin	0.000286224	2823
bin	0.0002870784	2785
bin	0.0002879328	2752
bin	0.0002887872	2726
bin	0.0002896416	2690
bin	0.000290496	2672
bin	0.0002913504	2679
bin	0.0002922048	2676
bin	0.0002930592	2592
bin	0.0002939136	2716
bin	0.000294768	2617
bin	0.0002956224	2689
bin	0.0002964768	2643
bin	0.0002973312	2546
bin	0.0002981856	2680
bin	0.00029904	2681
bin	0.0002998944	2624
bin	0.0003007488	2635
bin	0.0003016032	2681
bin	0.0003024576	2747
bin	0.000303312	2635
bin	0.0003041664	2762
bin	0.0003050208	2753
bin	0.0003058752	2874
bin	0.0003067296	2819
bin	0.000307584	2798
bin	0.0003084384	2803
bin	0.0003092928	2829
bin	0.0003101472	2819
bin	0.0003110016	2768
bin	0.000311856	2771
bin	0.0003127104	2820
bin	0.0003135648	2821
bin	0.0003144192	2709
bin	0.0003152736	2796
bin	0.000316128	2696
bin	0.0003169824	2781
bin	0.0003178368	2802
bin	0.0003186912	2708
bin	0.0003195456	2647
bin	0.0003204	2709
bin	0.0003212544	2714
bin	0.0003221088	2617
bin	0.0003229632	2588
bin	0.0003238176	2620
bin	0.000324672	2572
bin	0.0003255264	2516
bin	0.0003263808	2580
bin	0.0003272352	2527
bin	0.0003280896	2643
bin	0.000328944	2570
bin	0.0003297984	2582
bin	0.0003306528	2695
bin	0.0003315072	2571
bin	0.0003323616	2610
bin	0.000333216	2699
bin	0.0003340704	2674
bin	0.0003349248	2736
bin	0.0003357792	2749
bin	0.0003366336	2684
bin	0.000337488	2685
bin	0.0003383424	2731
bin	0.0003391968	2673
bin	0.0003400512	2646
bin	0.0003409056	2693
bin	0.00034176	2671
bin	0.0003426144	2711
bin	0.0003434688	2610
bin	0.0003443232	2671
bin	0.0003451776	2675
bin	0.000346032	2675
bin	0.0003468864	2650
bin	0.0003477408	2642
bin	0.0003485952	2656
bin	0.0003494496	2580
bin	0.000350304	2458
bin	0.0003511584	2609
bin	0.0003520128	2477
bin	0.0003528672	2536
bin	0.0003537216	2449
bin	0.000354576	2471
bin	0.0003554304	2485
bin	0.0003562848	2482
bin	0.0003571392	2410
bin	0.0003579936	2445
bin	0.000358848	2520
bin	0.0003597024	2509
bin	0.0003605568	2571
bin	0.0003614112	2536
bin	0.0003622656	2578
bin	0.00036312	2485
bin	0.0003639744	2539
bin	0.0003648288	2470
bin	0.0003656832	2520
bin	0.0003665376	2560
bin	0.000367392	2597
bin	0.0003682464	2523
bin	0.0003691008	2556
bin	0.0003699552	2615
bin	0.0003708096	2499
bin	0.000371664	2534
bin	0.0003725184	2592
bin	0.0003733728	2462
bin	0.0003742272	2567
bin	0.0003750816	2501
bin	0.000375936	2446
bin	0.0003767904	2457
bin	0.0003776448	2432
bin	0.0003784992	2533
bin	0.0003793536	2464
bin	0.000380208	2481
bin	0.0003810624	2365
bin	0.0003819168	2464
bin	0.0003827712	2339
bin	0.0003836256	2329
bin	0.00038448	2429
bin	0.0003853344	2391
bin	0.0003861888	2357
bin	0.0003870432	2409
bin	0.0003878976	2387
bin	0.000388752	2384
bin	0.0003896064	2419
bin	0.0003904608	2373
bin	0.0003913152	2299
bin	0.0003921696	2404
bin	0.000393024	2385
bin	0.0003938784	2392
bin	0.0003947328	2416
bin	0.0003955872	2422
bin	0.0003964416	2431
bin	0.000397296	2432
bin	0.0003981504	2504
bin	0.0003990048	2503
bin	0.0003998592	2500
bin	0.0004007136	2522
bin	0.000401568	2550
bin	0.0004024224	2510
bin	0.0004032768	2525
bin	0.0004041312	2477
bin	0.0004049856	2477
bin	0.00040584	2444
bin	0.0004066944	2496
bin	0.0004075488	2456
bin	0.0004084032	2456
bin	0.0004092576	2503
bin	0.000410112	2405
bin	0.0004109664	2413
bin	0.0004118208	2389
bin	0.0004126752	2338
bin	0.0004135296	2371
bin	0.000414384	2388
bin	0.0004152384	2348
bin	0.0004160928	2373
bin	0.0004169472	2310
bin	0.0004178016	2388
bin	0.000418656	2352
bin	0.0004195104	2339
bin	0.0004203648	2339
bin	0.0004212192	2312
bin	0.0004220736	2344
bin	0.000422928	2395
bin	0.0004237824	2334
bin	0.0004246368	2332
bin	0.0004254912	2336
bin	0.0004263456	2304
bin	0.0004272	2509072
