version 2
run Permutation-79-20120711-02:15:00-28240
attr alg 3
attr buf 8
attr configname Permutation
attr datetime 20120711-02:15:00
attr delta 1
attr experiment Permutation
attr ext false
attr inifile altro.ini
attr iterationvars "$buf=8, $ext=false, $ofedge=2, $delta=1, $alg=3"
attr iterationvars2 "$buf=8, $ext=false, $ofedge=2, $delta=1, $alg=3, $repetition=0"
attr measurement "$buf=8, $ext=false, $ofedge=2, $delta=1, $alg=3"
attr network Torus3d_bub
attr ofedge 2
attr processid 28240
attr repetition 0
attr replication #0
attr resultdir altro-results
attr runnumber 79
attr seedset 79

scalar . 	alg 	3
scalar . 	buf 	8
scalar . 	delta 	1
scalar . 	ofedge 	2
scalar Torus3d_bub.timer 	#endTime 	0.00340498966135
scalar Torus3d_bub.timer 	#totalHops 	88164383
scalar Torus3d_bub.timer 	#totalPacks 	6291456
scalar Torus3d_bub.timer 	#totalDerouted 	2159333
scalar Torus3d_bub.timer 	#totalOutFlanked 	1301019
scalar Torus3d_bub.timer 	#totalCQRed 	858314
scalar Torus3d_bub.timer 	#LB 	0.000786432
scalar Torus3d_bub.timer 	#ratio 	0.23096457793302
statistic Torus3d_bub.timer 	"Hop Times"
field count 6291456
field mean 8.8566999436639e-05
field stddev 8.682879588845e-05
field sum 557.21538000764
field sqrsum 0.096783682154431
field min 3.77125e-07
field max 0.002242827666472
bin	-INF	0
bin	0	0
bin	7.12e-08	0
bin	1.424e-07	0
bin	2.136e-07	0
bin	2.848e-07	0
bin	3.56e-07	180
bin	4.272e-07	981
bin	4.984e-07	2423
bin	5.696e-07	3502
bin	6.408e-07	4845
bin	7.12e-07	6191
bin	7.832e-07	7754
bin	8.544e-07	9281
bin	9.256e-07	11198
bin	9.968e-07	12981
bin	1.068e-06	15115
bin	1.1392e-06	17517
bin	1.2104e-06	20065
bin	1.2816e-06	22744
bin	1.3528e-06	25600
bin	1.424e-06	28911
bin	1.4952e-06	31850
bin	1.5664e-06	34495
bin	1.6376e-06	37524
bin	1.7088e-06	39244
bin	1.78e-06	40361
bin	1.8512e-06	40820
bin	1.9224e-06	40548
bin	1.9936e-06	39924
bin	2.0648e-06	38549
bin	2.136e-06	36763
bin	2.2072e-06	34195
bin	2.2784e-06	32615
bin	2.3496e-06	30649
bin	2.4208e-06	28400
bin	2.492e-06	26279
bin	2.5632e-06	24742
bin	2.6344e-06	22876
bin	2.7056e-06	21211
bin	2.7768e-06	20122
bin	2.848e-06	18555
bin	2.9192e-06	17275
bin	2.9904e-06	16219
bin	3.0616e-06	15233
bin	3.1328e-06	14246
bin	3.204e-06	13212
bin	3.2752e-06	12516
bin	3.3464e-06	11874
bin	3.4176e-06	11376
bin	3.4888e-06	10613
bin	3.56e-06	10044
bin	3.6312e-06	9759
bin	3.7024e-06	9251
bin	3.7736e-06	8807
bin	3.8448e-06	8298
bin	3.916e-06	8165
bin	3.9872e-06	7868
bin	4.0584e-06	7389
bin	4.1296e-06	7251
bin	4.2008e-06	7040
bin	4.272e-06	6848
bin	4.3432e-06	6534
bin	4.4144e-06	6331
bin	4.4856e-06	6043
bin	4.5568e-06	5866
bin	4.628e-06	5920
bin	4.6992e-06	5832
bin	4.7704e-06	5609
bin	4.8416e-06	5363
bin	4.9128e-06	5242
bin	4.984e-06	5291
bin	5.0552e-06	5024
bin	5.1264e-06	5000
bin	5.1976e-06	4872
bin	5.2688e-06	4811
bin	5.34e-06	4729
bin	5.4112e-06	4705
bin	5.4824e-06	4558
bin	5.5536e-06	4475
bin	5.6248e-06	4358
bin	5.696e-06	4387
bin	5.7672e-06	4281
bin	5.8384e-06	4283
bin	5.9096e-06	4089
bin	5.9808e-06	4212
bin	6.052e-06	3912
bin	6.1232e-06	3871
bin	6.1944e-06	4039
bin	6.2656e-06	3979
bin	6.3368e-06	3945
bin	6.408e-06	3929
bin	6.4792e-06	3887
bin	6.5504e-06	3649
bin	6.6216e-06	3745
bin	6.6928e-06	3776
bin	6.764e-06	3766
bin	6.8352e-06	3741
bin	6.9064e-06	3606
bin	6.9776e-06	3607
bin	7.0488e-06	3618
bin	7.12e-06	3467
bin	7.1912e-06	3601
bin	7.2624e-06	3520
bin	7.3336e-06	3434
bin	7.4048e-06	3456
bin	7.476e-06	3320
bin	7.5472e-06	3328
bin	7.6184e-06	3277
bin	7.6896e-06	3318
bin	7.7608e-06	3260
bin	7.832e-06	3269
bin	7.9032e-06	3275
bin	7.9744e-06	3324
bin	8.0456e-06	3296
bin	8.1168e-06	3283
bin	8.188e-06	3237
bin	8.2592e-06	3255
bin	8.3304e-06	3135
bin	8.4016e-06	3136
bin	8.4728e-06	3085
bin	8.544e-06	3171
bin	8.6152e-06	3122
bin	8.6864e-06	3105
bin	8.7576e-06	3061
bin	8.8288e-06	3005
bin	8.9e-06	3010
bin	8.9712e-06	3043
bin	9.0424e-06	2987
bin	9.1136e-06	2968
bin	9.1848e-06	2986
bin	9.256e-06	2985
bin	9.3272e-06	2953
bin	9.3984e-06	2923
bin	9.4696e-06	2897
bin	9.5408e-06	2908
bin	9.612e-06	2921
bin	9.6832e-06	2935
bin	9.7544e-06	2868
bin	9.8256e-06	2856
bin	9.8968e-06	2869
bin	9.968e-06	2828
bin	1.00392e-05	2863
bin	1.01104e-05	2816
bin	1.01816e-05	2849
bin	1.02528e-05	2780
bin	1.0324e-05	2793
bin	1.03952e-05	2754
bin	1.04664e-05	2711
bin	1.05376e-05	2645
bin	1.06088e-05	2689
bin	1.068e-05	2696
bin	1.07512e-05	2615
bin	1.08224e-05	2603
bin	1.08936e-05	2553
bin	1.09648e-05	2567
bin	1.1036e-05	2548
bin	1.11072e-05	2614
bin	1.11784e-05	2622
bin	1.12496e-05	2560
bin	1.13208e-05	2637
bin	1.1392e-05	2721
bin	1.14632e-05	2729
bin	1.15344e-05	2646
bin	1.16056e-05	2566
bin	1.16768e-05	2588
bin	1.1748e-05	2511
bin	1.18192e-05	2523
bin	1.18904e-05	2468
bin	1.19616e-05	2502
bin	1.20328e-05	2572
bin	1.2104e-05	2454
bin	1.21752e-05	2454
bin	1.22464e-05	2528
bin	1.23176e-05	2481
bin	1.23888e-05	2372
bin	1.246e-05	2357
bin	1.25312e-05	2396
bin	1.26024e-05	2333
bin	1.26736e-05	2346
bin	1.27448e-05	2393
bin	1.2816e-05	2263
bin	1.28872e-05	2300
bin	1.29584e-05	2305
bin	1.30296e-05	2304
bin	1.31008e-05	2242
bin	1.3172e-05	2362
bin	1.32432e-05	2309
bin	1.33144e-05	2306
bin	1.33856e-05	2248
bin	1.34568e-05	2300
bin	1.3528e-05	2350
bin	1.35992e-05	2283
bin	1.36704e-05	2235
bin	1.37416e-05	2238
bin	1.38128e-05	2250
bin	1.3884e-05	2169
bin	1.39552e-05	2138
bin	1.40264e-05	2177
bin	1.40976e-05	2225
bin	1.41688e-05	2276
bin	1.424e-05	2260
bin	1.43112e-05	2221
bin	1.43824e-05	2246
bin	1.44536e-05	2229
bin	1.45248e-05	2240
bin	1.4596e-05	2212
bin	1.46672e-05	2129
bin	1.47384e-05	2181
bin	1.48096e-05	2113
bin	1.48808e-05	2067
bin	1.4952e-05	2112
bin	1.50232e-05	2044
bin	1.50944e-05	2075
bin	1.51656e-05	2042
bin	1.52368e-05	2088
bin	1.5308e-05	2046
bin	1.53792e-05	2127
bin	1.54504e-05	2138
bin	1.55216e-05	2158
bin	1.55928e-05	2070
bin	1.5664e-05	2064
bin	1.57352e-05	2083
bin	1.58064e-05	2001
bin	1.58776e-05	2066
bin	1.59488e-05	2058
bin	1.602e-05	2084
bin	1.60912e-05	2022
bin	1.61624e-05	2057
bin	1.62336e-05	1969
bin	1.63048e-05	2009
bin	1.6376e-05	1995
bin	1.64472e-05	2047
bin	1.65184e-05	1886
bin	1.65896e-05	1910
bin	1.66608e-05	1960
bin	1.6732e-05	1946
bin	1.68032e-05	1952
bin	1.68744e-05	1961
bin	1.69456e-05	1910
bin	1.70168e-05	1922
bin	1.7088e-05	1864
bin	1.71592e-05	1832
bin	1.72304e-05	1829
bin	1.73016e-05	1870
bin	1.73728e-05	1892
bin	1.7444e-05	1868
bin	1.75152e-05	1847
bin	1.75864e-05	1797
bin	1.76576e-05	1866
bin	1.77288e-05	1885
bin	1.78e-05	1912
bin	1.78712e-05	1801
bin	1.79424e-05	1839
bin	1.80136e-05	1774
bin	1.80848e-05	1871
bin	1.8156e-05	1851
bin	1.82272e-05	1816
bin	1.82984e-05	1824
bin	1.83696e-05	1815
bin	1.84408e-05	1785
bin	1.8512e-05	1825
bin	1.85832e-05	1814
bin	1.86544e-05	1857
bin	1.87256e-05	1826
bin	1.87968e-05	1691
bin	1.8868e-05	1802
bin	1.89392e-05	1847
bin	1.90104e-05	1859
bin	1.90816e-05	1816
bin	1.91528e-05	1810
bin	1.9224e-05	1805
bin	1.92952e-05	1859
bin	1.93664e-05	1883
bin	1.94376e-05	1755
bin	1.95088e-05	1803
bin	1.958e-05	1720
bin	1.96512e-05	1698
bin	1.97224e-05	1812
bin	1.97936e-05	1662
bin	1.98648e-05	1783
bin	1.9936e-05	1772
bin	2.00072e-05	1795
bin	2.00784e-05	1814
bin	2.01496e-05	1764
bin	2.02208e-05	1796
bin	2.0292e-05	1738
bin	2.03632e-05	1809
bin	2.04344e-05	1813
bin	2.05056e-05	1805
bin	2.05768e-05	1793
bin	2.0648e-05	1750
bin	2.07192e-05	1768
bin	2.07904e-05	1777
bin	2.08616e-05	1738
bin	2.09328e-05	1730
bin	2.1004e-05	1728
bin	2.10752e-05	1766
bin	2.11464e-05	1848
bin	2.12176e-05	1774
bin	2.12888e-05	1770
bin	2.136e-05	1729
bin	2.14312e-05	1654
bin	2.15024e-05	1647
bin	2.15736e-05	1689
bin	2.16448e-05	1721
bin	2.1716e-05	1704
bin	2.17872e-05	1694
bin	2.18584e-05	1778
bin	2.19296e-05	1700
bin	2.20008e-05	1695
bin	2.2072e-05	1623
bin	2.21432e-05	1703
bin	2.22144e-05	1675
bin	2.22856e-05	1649
bin	2.23568e-05	1618
bin	2.2428e-05	1661
bin	2.24992e-05	1661
bin	2.25704e-05	1606
bin	2.26416e-05	1614
bin	2.27128e-05	1650
bin	2.2784e-05	1622
bin	2.28552e-05	1653
bin	2.29264e-05	1660
bin	2.29976e-05	1656
bin	2.30688e-05	1715
bin	2.314e-05	1684
bin	2.32112e-05	1699
bin	2.32824e-05	1670
bin	2.33536e-05	1646
bin	2.34248e-05	1654
bin	2.3496e-05	1608
bin	2.35672e-05	1565
bin	2.36384e-05	1643
bin	2.37096e-05	1599
bin	2.37808e-05	1593
bin	2.3852e-05	1668
bin	2.39232e-05	1583
bin	2.39944e-05	1636
bin	2.40656e-05	1645
bin	2.41368e-05	1543
bin	2.4208e-05	1537
bin	2.42792e-05	1551
bin	2.43504e-05	1642
bin	2.44216e-05	1603
bin	2.44928e-05	1640
bin	2.4564e-05	1685
bin	2.46352e-05	1566
bin	2.47064e-05	1592
bin	2.47776e-05	1646
bin	2.48488e-05	1654
bin	2.492e-05	1647
bin	2.49912e-05	1628
bin	2.50624e-05	1664
bin	2.51336e-05	1596
bin	2.52048e-05	1614
bin	2.5276e-05	1607
bin	2.53472e-05	1612
bin	2.54184e-05	1587
bin	2.54896e-05	1609
bin	2.55608e-05	1450
bin	2.5632e-05	1641
bin	2.57032e-05	1553
bin	2.57744e-05	1590
bin	2.58456e-05	1606
bin	2.59168e-05	1656
bin	2.5988e-05	1608
bin	2.60592e-05	1567
bin	2.61304e-05	1516
bin	2.62016e-05	1574
bin	2.62728e-05	1512
bin	2.6344e-05	1563
bin	2.64152e-05	1570
bin	2.64864e-05	1466
bin	2.65576e-05	1562
bin	2.66288e-05	1618
bin	2.67e-05	1603
bin	2.67712e-05	1567
bin	2.68424e-05	1549
bin	2.69136e-05	1600
bin	2.69848e-05	1616
bin	2.7056e-05	1561
bin	2.71272e-05	1599
bin	2.71984e-05	1600
bin	2.72696e-05	1549
bin	2.73408e-05	1546
bin	2.7412e-05	1558
bin	2.74832e-05	1595
bin	2.75544e-05	1510
bin	2.76256e-05	1521
bin	2.76968e-05	1581
bin	2.7768e-05	1564
bin	2.78392e-05	1593
bin	2.79104e-05	1599
bin	2.79816e-05	1616
bin	2.80528e-05	1652
bin	2.8124e-05	1596
bin	2.81952e-05	1661
bin	2.82664e-05	1578
bin	2.83376e-05	1577
bin	2.84088e-05	1629
bin	2.848e-05	1642
bin	2.85512e-05	1642
bin	2.86224e-05	1626
bin	2.86936e-05	1540
bin	2.87648e-05	1569
bin	2.8836e-05	1550
bin	2.89072e-05	1601
bin	2.89784e-05	1680
bin	2.90496e-05	1601
bin	2.91208e-05	1607
bin	2.9192e-05	1604
bin	2.92632e-05	1593
bin	2.93344e-05	1599
bin	2.94056e-05	1626
bin	2.94768e-05	1605
bin	2.9548e-05	1628
bin	2.96192e-05	1682
bin	2.96904e-05	1601
bin	2.97616e-05	1650
bin	2.98328e-05	1723
bin	2.9904e-05	1713
bin	2.99752e-05	1629
bin	3.00464e-05	1632
bin	3.01176e-05	1685
bin	3.01888e-05	1626
bin	3.026e-05	1634
bin	3.03312e-05	1591
bin	3.04024e-05	1659
bin	3.04736e-05	1627
bin	3.05448e-05	1617
bin	3.0616e-05	1624
bin	3.06872e-05	1646
bin	3.07584e-05	1624
bin	3.08296e-05	1689
bin	3.09008e-05	1749
bin	3.0972e-05	1666
bin	3.10432e-05	1715
bin	3.11144e-05	1741
bin	3.11856e-05	1774
bin	3.12568e-05	1717
bin	3.1328e-05	1703
bin	3.13992e-05	1637
bin	3.14704e-05	1738
bin	3.15416e-05	1742
bin	3.16128e-05	1650
bin	3.1684e-05	1639
bin	3.17552e-05	1653
bin	3.18264e-05	1552
bin	3.18976e-05	1665
bin	3.19688e-05	1603
bin	3.204e-05	1592
bin	3.21112e-05	1694
bin	3.21824e-05	1632
bin	3.22536e-05	1709
bin	3.23248e-05	1620
bin	3.2396e-05	1629
bin	3.24672e-05	1686
bin	3.25384e-05	1625
bin	3.26096e-05	1658
bin	3.26808e-05	1625
bin	3.2752e-05	1684
bin	3.28232e-05	1634
bin	3.28944e-05	1567
bin	3.29656e-05	1592
bin	3.30368e-05	1569
bin	3.3108e-05	1584
bin	3.31792e-05	1583
bin	3.32504e-05	1624
bin	3.33216e-05	1626
bin	3.33928e-05	1711
bin	3.3464e-05	1683
bin	3.35352e-05	1680
bin	3.36064e-05	1657
bin	3.36776e-05	1629
bin	3.37488e-05	1645
bin	3.382e-05	1708
bin	3.38912e-05	1638
bin	3.39624e-05	1583
bin	3.40336e-05	1608
bin	3.41048e-05	1616
bin	3.4176e-05	1666
bin	3.42472e-05	1656
bin	3.43184e-05	1674
bin	3.43896e-05	1654
bin	3.44608e-05	1640
bin	3.4532e-05	1701
bin	3.46032e-05	1591
bin	3.46744e-05	1643
bin	3.47456e-05	1653
bin	3.48168e-05	1675
bin	3.4888e-05	1636
bin	3.49592e-05	1650
bin	3.50304e-05	1619
bin	3.51016e-05	1648
bin	3.51728e-05	1600
bin	3.5244e-05	1681
bin	3.53152e-05	1678
bin	3.53864e-05	1643
bin	3.54576e-05	1681
bin	3.55288e-05	1712
bin	3.56e-05	4278386
statistic Torus3d_bub.timer 	"Life Times"
field count 6291456
field mean 0.0011317986560311
field stddev 0.00085249739756826
field sum 7120.6614452791
field sqrsum 12.631481380601
field min 5.2e-07
field max 0.003231458661831
bin	-INF	0
bin	0	16
bin	8.544e-07	411
bin	1.7088e-06	1144
bin	2.5632e-06	2192
bin	3.4176e-06	3380
bin	4.272e-06	4554
bin	5.1264e-06	5933
bin	5.9808e-06	7284
bin	6.8352e-06	8606
bin	7.6896e-06	10283
bin	8.544e-06	11681
bin	9.3984e-06	13461
bin	1.02528e-05	15216
bin	1.11072e-05	16234
bin	1.19616e-05	17656
bin	1.2816e-05	18500
bin	1.36704e-05	19737
bin	1.45248e-05	20891
bin	1.53792e-05	21682
bin	1.62336e-05	22898
bin	1.7088e-05	24197
bin	1.79424e-05	25114
bin	1.87968e-05	26272
bin	1.96512e-05	27344
bin	2.05056e-05	28442
bin	2.136e-05	29829
bin	2.22144e-05	31422
bin	2.30688e-05	33137
bin	2.39232e-05	34238
bin	2.47776e-05	35833
bin	2.5632e-05	35529
bin	2.64864e-05	34331
bin	2.73408e-05	33315
bin	2.81952e-05	31470
bin	2.90496e-05	29757
bin	2.9904e-05	27990
bin	3.07584e-05	25776
bin	3.16128e-05	24097
bin	3.24672e-05	21849
bin	3.33216e-05	19988
bin	3.4176e-05	18130
bin	3.50304e-05	16375
bin	3.58848e-05	14896
bin	3.67392e-05	13540
bin	3.75936e-05	12643
bin	3.8448e-05	11820
bin	3.93024e-05	11391
bin	4.01568e-05	10668
bin	4.10112e-05	10126
bin	4.18656e-05	9969
bin	4.272e-05	9446
bin	4.35744e-05	9319
bin	4.44288e-05	9050
bin	4.52832e-05	8849
bin	4.61376e-05	8750
bin	4.6992e-05	8656
bin	4.78464e-05	8553
bin	4.87008e-05	8440
bin	4.95552e-05	8288
bin	5.04096e-05	8313
bin	5.1264e-05	8041
bin	5.21184e-05	7844
bin	5.29728e-05	7451
bin	5.38272e-05	7089
bin	5.46816e-05	6738
bin	5.5536e-05	6416
bin	5.63904e-05	6295
bin	5.72448e-05	5880
bin	5.80992e-05	5717
bin	5.89536e-05	5435
bin	5.9808e-05	5218
bin	6.06624e-05	4999
bin	6.15168e-05	4857
bin	6.23712e-05	4727
bin	6.32256e-05	4671
bin	6.408e-05	4497
bin	6.49344e-05	4499
bin	6.57888e-05	4429
bin	6.66432e-05	4397
bin	6.74976e-05	4159
bin	6.8352e-05	4196
bin	6.92064e-05	4173
bin	7.00608e-05	4156
bin	7.09152e-05	4089
bin	7.17696e-05	4078
bin	7.2624e-05	4080
bin	7.34784e-05	4130
bin	7.43328e-05	4081
bin	7.51872e-05	4013
bin	7.60416e-05	4071
bin	7.6896e-05	3916
bin	7.77504e-05	3901
bin	7.86048e-05	3809
bin	7.94592e-05	3791
bin	8.03136e-05	3697
bin	8.1168e-05	3677
bin	8.20224e-05	3576
bin	8.28768e-05	3494
bin	8.37312e-05	3368
bin	8.45856e-05	3328
bin	8.544e-05	3300
bin	8.62944e-05	3254
bin	8.71488e-05	3259
bin	8.80032e-05	3205
bin	8.88576e-05	3082
bin	8.9712e-05	3154
bin	9.05664e-05	3033
bin	9.14208e-05	3136
bin	9.22752e-05	3021
bin	9.31296e-05	3014
bin	9.3984e-05	3106
bin	9.48384e-05	3088
bin	9.56928e-05	3129
bin	9.65472e-05	3131
bin	9.74016e-05	3058
bin	9.8256e-05	2976
bin	9.91104e-05	3058
bin	9.99648e-05	3038
bin	0.0001008192	3070
bin	0.0001016736	2995
bin	0.000102528	3006
bin	0.0001033824	2973
bin	0.0001042368	2850
bin	0.0001050912	2844
bin	0.0001059456	2920
bin	0.0001068	2940
bin	0.0001076544	2805
bin	0.0001085088	2808
bin	0.0001093632	2699
bin	0.0001102176	2656
bin	0.000111072	2554
bin	0.0001119264	2648
bin	0.0001127808	2643
bin	0.0001136352	2672
bin	0.0001144896	2638
bin	0.000115344	2589
bin	0.0001161984	2523
bin	0.0001170528	2593
bin	0.0001179072	2541
bin	0.0001187616	2580
bin	0.000119616	2577
bin	0.0001204704	2564
bin	0.0001213248	2615
bin	0.0001221792	2627
bin	0.0001230336	2667
bin	0.000123888	2727
bin	0.0001247424	2664
bin	0.0001255968	2610
bin	0.0001264512	2604
bin	0.0001273056	2591
bin	0.00012816	2647
bin	0.0001290144	2627
bin	0.0001298688	2601
bin	0.0001307232	2493
bin	0.0001315776	2496
bin	0.000132432	2472
bin	0.0001332864	2522
bin	0.0001341408	2467
bin	0.0001349952	2418
bin	0.0001358496	2410
bin	0.000136704	2406
bin	0.0001375584	2314
bin	0.0001384128	2337
bin	0.0001392672	2321
bin	0.0001401216	2250
bin	0.000140976	2306
bin	0.0001418304	2287
bin	0.0001426848	2297
bin	0.0001435392	2289
bin	0.0001443936	2292
bin	0.000145248	2407
bin	0.0001461024	2366
bin	0.0001469568	2445
bin	0.0001478112	2375
bin	0.0001486656	2394
bin	0.00014952	2354
bin	0.0001503744	2307
bin	0.0001512288	2330
bin	0.0001520832	2318
bin	0.0001529376	2273
bin	0.000153792	2240
bin	0.0001546464	2212
bin	0.0001555008	2180
bin	0.0001563552	2234
bin	0.0001572096	2190
bin	0.000158064	2162
bin	0.0001589184	2212
bin	0.0001597728	2125
bin	0.0001606272	2056
bin	0.0001614816	2057
bin	0.000162336	2080
bin	0.0001631904	2105
bin	0.0001640448	2156
bin	0.0001648992	2106
bin	0.0001657536	2127
bin	0.000166608	2105
bin	0.0001674624	2154
bin	0.0001683168	2232
bin	0.0001691712	2150
bin	0.0001700256	2258
bin	0.00017088	2286
bin	0.0001717344	2212
bin	0.0001725888	2206
bin	0.0001734432	2193
bin	0.0001742976	2249
bin	0.000175152	2221
bin	0.0001760064	2292
bin	0.0001768608	2227
bin	0.0001777152	2216
bin	0.0001785696	2217
bin	0.000179424	2172
bin	0.0001802784	2175
bin	0.0001811328	2142
bin	0.0001819872	2179
bin	0.0001828416	2090
bin	0.000183696	2108
bin	0.0001845504	2074
bin	0.0001854048	2101
bin	0.0001862592	2060
bin	0.0001871136	2017
bin	0.000187968	2041
bin	0.0001888224	2043
bin	0.0001896768	2046
bin	0.0001905312	2035
bin	0.0001913856	1994
bin	0.00019224	1932
bin	0.0001930944	2005
bin	0.0001939488	2025
bin	0.0001948032	2046
bin	0.0001956576	2088
bin	0.000196512	2142
bin	0.0001973664	2130
bin	0.0001982208	2104
bin	0.0001990752	2161
bin	0.0001999296	2096
bin	0.000200784	2082
bin	0.0002016384	2081
bin	0.0002024928	1948
bin	0.0002033472	2007
bin	0.0002042016	1979
bin	0.000205056	2000
bin	0.0002059104	1981
bin	0.0002067648	1914
bin	0.0002076192	1836
bin	0.0002084736	1865
bin	0.000209328	1825
bin	0.0002101824	1805
bin	0.0002110368	1818
bin	0.0002118912	1924
bin	0.0002127456	1853
bin	0.0002136	1772
bin	0.0002144544	1790
bin	0.0002153088	1719
bin	0.0002161632	1809
bin	0.0002170176	1810
bin	0.000217872	1806
bin	0.0002187264	1799
bin	0.0002195808	1831
bin	0.0002204352	1836
bin	0.0002212896	1819
bin	0.000222144	1837
bin	0.0002229984	1772
bin	0.0002238528	1786
bin	0.0002247072	1900
bin	0.0002255616	1867
bin	0.000226416	1838
bin	0.0002272704	1774
bin	0.0002281248	1832
bin	0.0002289792	1809
bin	0.0002298336	1800
bin	0.000230688	1754
bin	0.0002315424	1761
bin	0.0002323968	1798
bin	0.0002332512	1718
bin	0.0002341056	1700
bin	0.00023496	1689
bin	0.0002358144	1665
bin	0.0002366688	1602
bin	0.0002375232	1624
bin	0.0002383776	1710
bin	0.000239232	1630
bin	0.0002400864	1643
bin	0.0002409408	1714
bin	0.0002417952	1695
bin	0.0002426496	1696
bin	0.000243504	1642
bin	0.0002443584	1659
bin	0.0002452128	1665
bin	0.0002460672	1684
bin	0.0002469216	1699
bin	0.000247776	1711
bin	0.0002486304	1716
bin	0.0002494848	1676
bin	0.0002503392	1655
bin	0.0002511936	1688
bin	0.000252048	1694
bin	0.0002529024	1632
bin	0.0002537568	1633
bin	0.0002546112	1696
bin	0.0002554656	1633
bin	0.00025632	1566
bin	0.0002571744	1488
bin	0.0002580288	1554
bin	0.0002588832	1505
bin	0.0002597376	1544
bin	0.000260592	1513
bin	0.0002614464	1473
bin	0.0002623008	1481
bin	0.0002631552	1484
bin	0.0002640096	1496
bin	0.000264864	1512
bin	0.0002657184	1499
bin	0.0002665728	1559
bin	0.0002674272	1439
bin	0.0002682816	1500
bin	0.000269136	1437
bin	0.0002699904	1472
bin	0.0002708448	1570
bin	0.0002716992	1522
bin	0.0002725536	1572
bin	0.000273408	1503
bin	0.0002742624	1510
bin	0.0002751168	1508
bin	0.0002759712	1470
bin	0.0002768256	1502
bin	0.00027768	1495
bin	0.0002785344	1527
bin	0.0002793888	1509
bin	0.0002802432	1527
bin	0.0002810976	1484
bin	0.000281952	1486
bin	0.0002828064	1507
bin	0.0002836608	1494
bin	0.0002845152	1449
bin	0.0002853696	1395
bin	0.000286224	1446
bin	0.0002870784	1471
bin	0.0002879328	1509
bin	0.0002887872	1421
bin	0.0002896416	1434
bin	0.000290496	1460
bin	0.0002913504	1482
bin	0.0002922048	1462
bin	0.0002930592	1514
bin	0.0002939136	1476
bin	0.000294768	1489
bin	0.0002956224	1524
bin	0.0002964768	1516
bin	0.0002973312	1425
bin	0.0002981856	1395
bin	0.00029904	1441
bin	0.0002998944	1476
bin	0.0003007488	1459
bin	0.0003016032	1456
bin	0.0003024576	1485
bin	0.000303312	1438
bin	0.0003041664	1457
bin	0.0003050208	1455
bin	0.0003058752	1547
bin	0.0003067296	1449
bin	0.000307584	1490
bin	0.0003084384	1400
bin	0.0003092928	1453
bin	0.0003101472	1482
bin	0.0003110016	1377
bin	0.000311856	1361
bin	0.0003127104	1348
bin	0.0003135648	1400
bin	0.0003144192	1383
bin	0.0003152736	1395
bin	0.000316128	1370
bin	0.0003169824	1342
bin	0.0003178368	1400
bin	0.0003186912	1400
bin	0.0003195456	1380
bin	0.0003204	1408
bin	0.0003212544	1406
bin	0.0003221088	1373
bin	0.0003229632	1420
bin	0.0003238176	1450
bin	0.000324672	1401
bin	0.0003255264	1434
bin	0.0003263808	1363
bin	0.0003272352	1356
bin	0.0003280896	1342
bin	0.000328944	1331
bin	0.0003297984	1284
bin	0.0003306528	1239
bin	0.0003315072	1221
bin	0.0003323616	1222
bin	0.000333216	1233
bin	0.0003340704	1284
bin	0.0003349248	1265
bin	0.0003357792	1220
bin	0.0003366336	1206
bin	0.000337488	1243
bin	0.0003383424	1242
bin	0.0003391968	1212
bin	0.0003400512	1300
bin	0.0003409056	1240
bin	0.00034176	1308
bin	0.0003426144	1228
bin	0.0003434688	1331
bin	0.0003443232	1323
bin	0.0003451776	1277
bin	0.000346032	1288
bin	0.0003468864	1308
bin	0.0003477408	1291
bin	0.0003485952	1304
bin	0.0003494496	1300
bin	0.000350304	1287
bin	0.0003511584	1284
bin	0.0003520128	1269
bin	0.0003528672	1322
bin	0.0003537216	1240
bin	0.000354576	1267
bin	0.0003554304	1257
bin	0.0003562848	1196
bin	0.0003571392	1250
bin	0.0003579936	1221
bin	0.000358848	1312
bin	0.0003597024	1351
bin	0.0003605568	1283
bin	0.0003614112	1251
bin	0.0003622656	1304
bin	0.00036312	1264
bin	0.0003639744	1350
bin	0.0003648288	1279
bin	0.0003656832	1270
bin	0.0003665376	1346
bin	0.000367392	1274
bin	0.0003682464	1308
bin	0.0003691008	1316
bin	0.0003699552	1315
bin	0.0003708096	1316
bin	0.000371664	1301
bin	0.0003725184	1366
bin	0.0003733728	1332
bin	0.0003742272	1322
bin	0.0003750816	1338
bin	0.000375936	1308
bin	0.0003767904	1332
bin	0.0003776448	1325
bin	0.0003784992	1281
bin	0.0003793536	1328
bin	0.000380208	1356
bin	0.0003810624	1286
bin	0.0003819168	1269
bin	0.0003827712	1283
bin	0.0003836256	1265
bin	0.00038448	1279
bin	0.0003853344	1269
bin	0.0003861888	1186
bin	0.0003870432	1247
bin	0.0003878976	1250
bin	0.000388752	1314
bin	0.0003896064	1280
bin	0.0003904608	1313
bin	0.0003913152	1284
bin	0.0003921696	1344
bin	0.000393024	1308
bin	0.0003938784	1322
bin	0.0003947328	1255
bin	0.0003955872	1242
bin	0.0003964416	1282
bin	0.000397296	1233
bin	0.0003981504	1259
bin	0.0003990048	1273
bin	0.0003998592	1278
bin	0.0004007136	1279
bin	0.000401568	1272
bin	0.0004024224	1275
bin	0.0004032768	1318
bin	0.0004041312	1295
bin	0.0004049856	1300
bin	0.00040584	1260
bin	0.0004066944	1316
bin	0.0004075488	1275
bin	0.0004084032	1302
bin	0.0004092576	1263
bin	0.000410112	1313
bin	0.0004109664	1292
bin	0.0004118208	1292
bin	0.0004126752	1260
bin	0.0004135296	1239
bin	0.000414384	1285
bin	0.0004152384	1324
bin	0.0004160928	1281
bin	0.0004169472	1306
bin	0.0004178016	1296
bin	0.000418656	1244
bin	0.0004195104	1309
bin	0.0004203648	1324
bin	0.0004212192	1241
bin	0.0004220736	1279
bin	0.000422928	1330
bin	0.0004237824	1284
bin	0.0004246368	1192
bin	0.0004254912	1318
bin	0.0004263456	1245
bin	0.0004272	4362110
