version 2
run Permutation-38-20120710-22:46:28-28117
attr alg 2
attr buf 8
attr configname Permutation
attr datetime 20120710-22:46:28
attr delta 1
attr experiment Permutation
attr ext true
attr inifile altro.ini
attr iterationvars "$buf=8, $ext=true, $ofedge=2, $delta=1, $alg=2"
attr iterationvars2 "$buf=8, $ext=true, $ofedge=2, $delta=1, $alg=2, $repetition=0"
attr measurement "$buf=8, $ext=true, $ofedge=2, $delta=1, $alg=2"
attr network Torus3d_bub
attr ofedge 2
attr processid 28117
attr repetition 0
attr replication #0
attr resultdir altro-results
attr runnumber 38
attr seedset 38

scalar . 	alg 	2
scalar . 	buf 	8
scalar . 	delta 	1
scalar . 	ofedge 	2
scalar Torus3d_bub.timer 	#endTime 	0.0027564589957
scalar Torus3d_bub.timer 	#totalHops 	89892928
scalar Torus3d_bub.timer 	#totalPacks 	6291456
scalar Torus3d_bub.timer 	#totalDerouted 	1976463
scalar Torus3d_bub.timer 	#totalOutFlanked 	0
scalar Torus3d_bub.timer 	#totalCQRed 	1976463
scalar Torus3d_bub.timer 	#LB 	0.000786432
scalar Torus3d_bub.timer 	#ratio 	0.28530516914157
statistic Torus3d_bub.timer 	"Hop Times"
field count 6291456
field mean 7.2049509586203e-05
field stddev 7.5806581086256e-05
field sum 453.29631938317
field sqrsum 0.068814490226053
field min 4.07272726e-07
field max 0.00214503833333
bin	-INF	0
bin	0	0
bin	7.12e-08	0
bin	1.424e-07	0
bin	2.136e-07	0
bin	2.848e-07	0
bin	3.56e-07	24
bin	4.272e-07	918
bin	4.984e-07	3349
bin	5.696e-07	4926
bin	6.408e-07	6589
bin	7.12e-07	8256
bin	7.832e-07	10245
bin	8.544e-07	12373
bin	9.256e-07	14167
bin	9.968e-07	16200
bin	1.068e-06	18359
bin	1.1392e-06	20678
bin	1.2104e-06	23137
bin	1.2816e-06	25751
bin	1.3528e-06	28783
bin	1.424e-06	31975
bin	1.4952e-06	35436
bin	1.5664e-06	38454
bin	1.6376e-06	41039
bin	1.7088e-06	43004
bin	1.78e-06	43884
bin	1.8512e-06	43783
bin	1.9224e-06	43321
bin	1.9936e-06	41918
bin	2.0648e-06	40184
bin	2.136e-06	38037
bin	2.2072e-06	35950
bin	2.2784e-06	33804
bin	2.3496e-06	31517
bin	2.4208e-06	29531
bin	2.492e-06	27386
bin	2.5632e-06	25646
bin	2.6344e-06	23815
bin	2.7056e-06	21918
bin	2.7768e-06	20512
bin	2.848e-06	19275
bin	2.9192e-06	17942
bin	2.9904e-06	16673
bin	3.0616e-06	15542
bin	3.1328e-06	14796
bin	3.204e-06	13839
bin	3.2752e-06	13198
bin	3.3464e-06	12477
bin	3.4176e-06	11977
bin	3.4888e-06	11108
bin	3.56e-06	10639
bin	3.6312e-06	10176
bin	3.7024e-06	9771
bin	3.7736e-06	9210
bin	3.8448e-06	9011
bin	3.916e-06	8673
bin	3.9872e-06	8222
bin	4.0584e-06	7953
bin	4.1296e-06	7754
bin	4.2008e-06	7440
bin	4.272e-06	7082
bin	4.3432e-06	6878
bin	4.4144e-06	6800
bin	4.4856e-06	6532
bin	4.5568e-06	6490
bin	4.628e-06	6388
bin	4.6992e-06	6255
bin	4.7704e-06	6129
bin	4.8416e-06	5886
bin	4.9128e-06	5698
bin	4.984e-06	5526
bin	5.0552e-06	5511
bin	5.1264e-06	5341
bin	5.1976e-06	5213
bin	5.2688e-06	5229
bin	5.34e-06	5067
bin	5.4112e-06	4888
bin	5.4824e-06	4852
bin	5.5536e-06	4723
bin	5.6248e-06	4687
bin	5.696e-06	4559
bin	5.7672e-06	4466
bin	5.8384e-06	4458
bin	5.9096e-06	4404
bin	5.9808e-06	4298
bin	6.052e-06	4241
bin	6.1232e-06	4211
bin	6.1944e-06	4288
bin	6.2656e-06	4114
bin	6.3368e-06	4115
bin	6.408e-06	4033
bin	6.4792e-06	4096
bin	6.5504e-06	3896
bin	6.6216e-06	3882
bin	6.6928e-06	3801
bin	6.764e-06	3671
bin	6.8352e-06	3708
bin	6.9064e-06	3722
bin	6.9776e-06	3614
bin	7.0488e-06	3703
bin	7.12e-06	3576
bin	7.1912e-06	3602
bin	7.2624e-06	3537
bin	7.3336e-06	3529
bin	7.4048e-06	3616
bin	7.476e-06	3465
bin	7.5472e-06	3470
bin	7.6184e-06	3492
bin	7.6896e-06	3485
bin	7.7608e-06	3316
bin	7.832e-06	3362
bin	7.9032e-06	3277
bin	7.9744e-06	3370
bin	8.0456e-06	3244
bin	8.1168e-06	3248
bin	8.188e-06	3206
bin	8.2592e-06	3268
bin	8.3304e-06	3053
bin	8.4016e-06	2995
bin	8.4728e-06	3022
bin	8.544e-06	3087
bin	8.6152e-06	3102
bin	8.6864e-06	2997
bin	8.7576e-06	2982
bin	8.8288e-06	3037
bin	8.9e-06	2992
bin	8.9712e-06	2975
bin	9.0424e-06	3008
bin	9.1136e-06	2991
bin	9.1848e-06	2955
bin	9.256e-06	2948
bin	9.3272e-06	2873
bin	9.3984e-06	2872
bin	9.4696e-06	2885
bin	9.5408e-06	2776
bin	9.612e-06	2715
bin	9.6832e-06	2750
bin	9.7544e-06	2762
bin	9.8256e-06	2738
bin	9.8968e-06	2740
bin	9.968e-06	2653
bin	1.00392e-05	2688
bin	1.01104e-05	2690
bin	1.01816e-05	2583
bin	1.02528e-05	2709
bin	1.0324e-05	2640
bin	1.03952e-05	2637
bin	1.04664e-05	2628
bin	1.05376e-05	2581
bin	1.06088e-05	2627
bin	1.068e-05	2617
bin	1.07512e-05	2644
bin	1.08224e-05	2597
bin	1.08936e-05	2542
bin	1.09648e-05	2588
bin	1.1036e-05	2576
bin	1.11072e-05	2555
bin	1.11784e-05	2580
bin	1.12496e-05	2554
bin	1.13208e-05	2522
bin	1.1392e-05	2493
bin	1.14632e-05	2504
bin	1.15344e-05	2415
bin	1.16056e-05	2399
bin	1.16768e-05	2411
bin	1.1748e-05	2522
bin	1.18192e-05	2528
bin	1.18904e-05	2571
bin	1.19616e-05	2526
bin	1.20328e-05	2554
bin	1.2104e-05	2444
bin	1.21752e-05	2404
bin	1.22464e-05	2437
bin	1.23176e-05	2546
bin	1.23888e-05	2548
bin	1.246e-05	2464
bin	1.25312e-05	2454
bin	1.26024e-05	2436
bin	1.26736e-05	2375
bin	1.27448e-05	2514
bin	1.2816e-05	2466
bin	1.28872e-05	2399
bin	1.29584e-05	2437
bin	1.30296e-05	2403
bin	1.31008e-05	2419
bin	1.3172e-05	2418
bin	1.32432e-05	2474
bin	1.33144e-05	2314
bin	1.33856e-05	2347
bin	1.34568e-05	2232
bin	1.3528e-05	2370
bin	1.35992e-05	2323
bin	1.36704e-05	2360
bin	1.37416e-05	2362
bin	1.38128e-05	2364
bin	1.3884e-05	2406
bin	1.39552e-05	2355
bin	1.40264e-05	2431
bin	1.40976e-05	2374
bin	1.41688e-05	2408
bin	1.424e-05	2293
bin	1.43112e-05	2360
bin	1.43824e-05	2316
bin	1.44536e-05	2452
bin	1.45248e-05	2290
bin	1.4596e-05	2322
bin	1.46672e-05	2301
bin	1.47384e-05	2305
bin	1.48096e-05	2389
bin	1.48808e-05	2482
bin	1.4952e-05	2373
bin	1.50232e-05	2402
bin	1.50944e-05	2372
bin	1.51656e-05	2341
bin	1.52368e-05	2373
bin	1.5308e-05	2408
bin	1.53792e-05	2400
bin	1.54504e-05	2348
bin	1.55216e-05	2379
bin	1.55928e-05	2376
bin	1.5664e-05	2418
bin	1.57352e-05	2422
bin	1.58064e-05	2323
bin	1.58776e-05	2350
bin	1.59488e-05	2287
bin	1.602e-05	2291
bin	1.60912e-05	2272
bin	1.61624e-05	2221
bin	1.62336e-05	2220
bin	1.63048e-05	2351
bin	1.6376e-05	2313
bin	1.64472e-05	2225
bin	1.65184e-05	2277
bin	1.65896e-05	2260
bin	1.66608e-05	2230
bin	1.6732e-05	2301
bin	1.68032e-05	2232
bin	1.68744e-05	2304
bin	1.69456e-05	2229
bin	1.70168e-05	2255
bin	1.7088e-05	2153
bin	1.71592e-05	2291
bin	1.72304e-05	2245
bin	1.73016e-05	2342
bin	1.73728e-05	2243
bin	1.7444e-05	2198
bin	1.75152e-05	2208
bin	1.75864e-05	2238
bin	1.76576e-05	2128
bin	1.77288e-05	2161
bin	1.78e-05	2170
bin	1.78712e-05	2180
bin	1.79424e-05	2049
bin	1.80136e-05	2141
bin	1.80848e-05	2103
bin	1.8156e-05	2245
bin	1.82272e-05	2257
bin	1.82984e-05	2203
bin	1.83696e-05	2211
bin	1.84408e-05	2230
bin	1.8512e-05	2251
bin	1.85832e-05	2195
bin	1.86544e-05	2252
bin	1.87256e-05	2195
bin	1.87968e-05	2255
bin	1.8868e-05	2288
bin	1.89392e-05	2240
bin	1.90104e-05	2242
bin	1.90816e-05	2234
bin	1.91528e-05	2219
bin	1.9224e-05	2170
bin	1.92952e-05	2123
bin	1.93664e-05	2131
bin	1.94376e-05	2171
bin	1.95088e-05	2200
bin	1.958e-05	2196
bin	1.96512e-05	2245
bin	1.97224e-05	2168
bin	1.97936e-05	2193
bin	1.98648e-05	2097
bin	1.9936e-05	2141
bin	2.00072e-05	2113
bin	2.00784e-05	2040
bin	2.01496e-05	2063
bin	2.02208e-05	2039
bin	2.0292e-05	2068
bin	2.03632e-05	2050
bin	2.04344e-05	2113
bin	2.05056e-05	2090
bin	2.05768e-05	2057
bin	2.0648e-05	2094
bin	2.07192e-05	2153
bin	2.07904e-05	2073
bin	2.08616e-05	2051
bin	2.09328e-05	2135
bin	2.1004e-05	2152
bin	2.10752e-05	2125
bin	2.11464e-05	2032
bin	2.12176e-05	2067
bin	2.12888e-05	2174
bin	2.136e-05	2187
bin	2.14312e-05	2148
bin	2.15024e-05	2051
bin	2.15736e-05	2062
bin	2.16448e-05	2078
bin	2.1716e-05	2121
bin	2.17872e-05	2100
bin	2.18584e-05	2195
bin	2.19296e-05	2195
bin	2.20008e-05	2140
bin	2.2072e-05	2205
bin	2.21432e-05	2213
bin	2.22144e-05	2210
bin	2.22856e-05	2132
bin	2.23568e-05	2071
bin	2.2428e-05	2082
bin	2.24992e-05	2007
bin	2.25704e-05	2093
bin	2.26416e-05	2136
bin	2.27128e-05	2072
bin	2.2784e-05	2047
bin	2.28552e-05	2034
bin	2.29264e-05	2080
bin	2.29976e-05	1995
bin	2.30688e-05	2036
bin	2.314e-05	2057
bin	2.32112e-05	2084
bin	2.32824e-05	2171
bin	2.33536e-05	2142
bin	2.34248e-05	2180
bin	2.3496e-05	2101
bin	2.35672e-05	2060
bin	2.36384e-05	2029
bin	2.37096e-05	2071
bin	2.37808e-05	2049
bin	2.3852e-05	2082
bin	2.39232e-05	2042
bin	2.39944e-05	2087
bin	2.40656e-05	2156
bin	2.41368e-05	2098
bin	2.4208e-05	2077
bin	2.42792e-05	2050
bin	2.43504e-05	2076
bin	2.44216e-05	2095
bin	2.44928e-05	2176
bin	2.4564e-05	2115
bin	2.46352e-05	2153
bin	2.47064e-05	2206
bin	2.47776e-05	2229
bin	2.48488e-05	2199
bin	2.492e-05	2250
bin	2.49912e-05	2173
bin	2.50624e-05	2174
bin	2.51336e-05	2156
bin	2.52048e-05	2183
bin	2.5276e-05	2149
bin	2.53472e-05	2049
bin	2.54184e-05	2036
bin	2.54896e-05	2009
bin	2.55608e-05	2026
bin	2.5632e-05	1984
bin	2.57032e-05	1934
bin	2.57744e-05	1950
bin	2.58456e-05	1935
bin	2.59168e-05	2002
bin	2.5988e-05	2061
bin	2.60592e-05	2033
bin	2.61304e-05	2060
bin	2.62016e-05	1977
bin	2.62728e-05	2092
bin	2.6344e-05	2016
bin	2.64152e-05	2025
bin	2.64864e-05	2065
bin	2.65576e-05	2095
bin	2.66288e-05	2035
bin	2.67e-05	1957
bin	2.67712e-05	1989
bin	2.68424e-05	2036
bin	2.69136e-05	2047
bin	2.69848e-05	2079
bin	2.7056e-05	2108
bin	2.71272e-05	2049
bin	2.71984e-05	2029
bin	2.72696e-05	2097
bin	2.73408e-05	2069
bin	2.7412e-05	1999
bin	2.74832e-05	2048
bin	2.75544e-05	2099
bin	2.76256e-05	2120
bin	2.76968e-05	2171
bin	2.7768e-05	2043
bin	2.78392e-05	2125
bin	2.79104e-05	2148
bin	2.79816e-05	2119
bin	2.80528e-05	2135
bin	2.8124e-05	2157
bin	2.81952e-05	2133
bin	2.82664e-05	2201
bin	2.83376e-05	2103
bin	2.84088e-05	2116
bin	2.848e-05	2134
bin	2.85512e-05	2125
bin	2.86224e-05	2062
bin	2.86936e-05	2112
bin	2.87648e-05	2113
bin	2.8836e-05	2173
bin	2.89072e-05	2153
bin	2.89784e-05	2097
bin	2.90496e-05	2033
bin	2.91208e-05	2068
bin	2.9192e-05	2052
bin	2.92632e-05	2122
bin	2.93344e-05	2147
bin	2.94056e-05	2176
bin	2.94768e-05	2209
bin	2.9548e-05	2125
bin	2.96192e-05	2168
bin	2.96904e-05	2192
bin	2.97616e-05	2138
bin	2.98328e-05	2132
bin	2.9904e-05	2161
bin	2.99752e-05	2088
bin	3.00464e-05	2145
bin	3.01176e-05	2100
bin	3.01888e-05	2195
bin	3.026e-05	2158
bin	3.03312e-05	2182
bin	3.04024e-05	2149
bin	3.04736e-05	2194
bin	3.05448e-05	2127
bin	3.0616e-05	2117
bin	3.06872e-05	2129
bin	3.07584e-05	2155
bin	3.08296e-05	2192
bin	3.09008e-05	2156
bin	3.0972e-05	2146
bin	3.10432e-05	2191
bin	3.11144e-05	2146
bin	3.11856e-05	2256
bin	3.12568e-05	2153
bin	3.1328e-05	2259
bin	3.13992e-05	2124
bin	3.14704e-05	2129
bin	3.15416e-05	2083
bin	3.16128e-05	2089
bin	3.1684e-05	2098
bin	3.17552e-05	2176
bin	3.18264e-05	2114
bin	3.18976e-05	2152
bin	3.19688e-05	2177
bin	3.204e-05	2266
bin	3.21112e-05	2140
bin	3.21824e-05	2139
bin	3.22536e-05	2241
bin	3.23248e-05	2211
bin	3.2396e-05	2302
bin	3.24672e-05	2159
bin	3.25384e-05	2178
bin	3.26096e-05	2207
bin	3.26808e-05	2145
bin	3.2752e-05	2127
bin	3.28232e-05	2094
bin	3.28944e-05	2249
bin	3.29656e-05	2200
bin	3.30368e-05	2187
bin	3.3108e-05	2177
bin	3.31792e-05	2175
bin	3.32504e-05	2225
bin	3.33216e-05	2137
bin	3.33928e-05	2254
bin	3.3464e-05	2227
bin	3.35352e-05	2183
bin	3.36064e-05	2152
bin	3.36776e-05	2171
bin	3.37488e-05	2041
bin	3.382e-05	2172
bin	3.38912e-05	2175
bin	3.39624e-05	2237
bin	3.40336e-05	2270
bin	3.41048e-05	2252
bin	3.4176e-05	2308
bin	3.42472e-05	2262
bin	3.43184e-05	2310
bin	3.43896e-05	2173
bin	3.44608e-05	2277
bin	3.4532e-05	2236
bin	3.46032e-05	2369
bin	3.46744e-05	2322
bin	3.47456e-05	2337
bin	3.48168e-05	2278
bin	3.4888e-05	2324
bin	3.49592e-05	2266
bin	3.50304e-05	2299
bin	3.51016e-05	2279
bin	3.51728e-05	2317
bin	3.5244e-05	2205
bin	3.53152e-05	2297
bin	3.53864e-05	2307
bin	3.54576e-05	2307
bin	3.55288e-05	2294
bin	3.56e-05	4049113
statistic Torus3d_bub.timer 	"Life Times"
field count 6291456
field mean 0.00091236800144821
field stddev 0.00068420963118861
field sum 5740.1231369194
field sqrsum 8.1824041563968
field min 6.37333333e-07
field max 0.002698385333331
bin	-INF	0
bin	0	20
bin	8.544e-07	632
bin	1.7088e-06	2125
bin	2.5632e-06	3480
bin	3.4176e-06	5225
bin	4.272e-06	6883
bin	5.1264e-06	8654
bin	5.9808e-06	10429
bin	6.8352e-06	12247
bin	7.6896e-06	13737
bin	8.544e-06	15667
bin	9.3984e-06	17481
bin	1.02528e-05	19482
bin	1.11072e-05	20525
bin	1.19616e-05	21847
bin	1.2816e-05	23120
bin	1.36704e-05	24141
bin	1.45248e-05	25013
bin	1.53792e-05	25806
bin	1.62336e-05	26671
bin	1.7088e-05	27478
bin	1.79424e-05	27953
bin	1.87968e-05	28941
bin	1.96512e-05	29694
bin	2.05056e-05	30374
bin	2.136e-05	31413
bin	2.22144e-05	32531
bin	2.30688e-05	33994
bin	2.39232e-05	35060
bin	2.47776e-05	36021
bin	2.5632e-05	35787
bin	2.64864e-05	34504
bin	2.73408e-05	32760
bin	2.81952e-05	31265
bin	2.90496e-05	29312
bin	2.9904e-05	27645
bin	3.07584e-05	25643
bin	3.16128e-05	23963
bin	3.24672e-05	21928
bin	3.33216e-05	20104
bin	3.4176e-05	18539
bin	3.50304e-05	16916
bin	3.58848e-05	15472
bin	3.67392e-05	14094
bin	3.75936e-05	13320
bin	3.8448e-05	12411
bin	3.93024e-05	11976
bin	4.01568e-05	11147
bin	4.10112e-05	10786
bin	4.18656e-05	10241
bin	4.272e-05	9985
bin	4.35744e-05	9523
bin	4.44288e-05	9258
bin	4.52832e-05	9050
bin	4.61376e-05	8887
bin	4.6992e-05	8801
bin	4.78464e-05	8666
bin	4.87008e-05	8527
bin	4.95552e-05	8438
bin	5.04096e-05	8234
bin	5.1264e-05	7948
bin	5.21184e-05	7723
bin	5.29728e-05	7436
bin	5.38272e-05	7132
bin	5.46816e-05	6835
bin	5.5536e-05	6517
bin	5.63904e-05	6277
bin	5.72448e-05	5914
bin	5.80992e-05	5606
bin	5.89536e-05	5514
bin	5.9808e-05	5329
bin	6.06624e-05	5103
bin	6.15168e-05	4990
bin	6.23712e-05	4720
bin	6.32256e-05	4671
bin	6.408e-05	4543
bin	6.49344e-05	4403
bin	6.57888e-05	4353
bin	6.66432e-05	4260
bin	6.74976e-05	4177
bin	6.8352e-05	4139
bin	6.92064e-05	4140
bin	7.00608e-05	4098
bin	7.09152e-05	4115
bin	7.17696e-05	4110
bin	7.2624e-05	4096
bin	7.34784e-05	4167
bin	7.43328e-05	4092
bin	7.51872e-05	3954
bin	7.60416e-05	4113
bin	7.6896e-05	4000
bin	7.77504e-05	3977
bin	7.86048e-05	3794
bin	7.94592e-05	3804
bin	8.03136e-05	3794
bin	8.1168e-05	3662
bin	8.20224e-05	3648
bin	8.28768e-05	3540
bin	8.37312e-05	3501
bin	8.45856e-05	3467
bin	8.544e-05	3261
bin	8.62944e-05	3217
bin	8.71488e-05	3130
bin	8.80032e-05	3147
bin	8.88576e-05	3028
bin	8.9712e-05	3062
bin	9.05664e-05	3004
bin	9.14208e-05	3075
bin	9.22752e-05	2953
bin	9.31296e-05	3049
bin	9.3984e-05	3038
bin	9.48384e-05	3039
bin	9.56928e-05	3022
bin	9.65472e-05	3075
bin	9.74016e-05	3068
bin	9.8256e-05	3176
bin	9.91104e-05	3143
bin	9.99648e-05	3158
bin	0.0001008192	3106
bin	0.0001016736	3070
bin	0.000102528	3122
bin	0.0001033824	3031
bin	0.0001042368	3021
bin	0.0001050912	3048
bin	0.0001059456	3010
bin	0.0001068	2936
bin	0.0001076544	2993
bin	0.0001085088	2897
bin	0.0001093632	2864
bin	0.0001102176	2753
bin	0.000111072	2761
bin	0.0001119264	2709
bin	0.0001127808	2683
bin	0.0001136352	2555
bin	0.0001144896	2500
bin	0.000115344	2496
bin	0.0001161984	2535
bin	0.0001170528	2546
bin	0.0001179072	2508
bin	0.0001187616	2567
bin	0.000119616	2543
bin	0.0001204704	2618
bin	0.0001213248	2553
bin	0.0001221792	2694
bin	0.0001230336	2670
bin	0.000123888	2749
bin	0.0001247424	2654
bin	0.0001255968	2654
bin	0.0001264512	2707
bin	0.0001273056	2677
bin	0.00012816	2680
bin	0.0001290144	2746
bin	0.0001298688	2718
bin	0.0001307232	2664
bin	0.0001315776	2676
bin	0.000132432	2553
bin	0.0001332864	2527
bin	0.0001341408	2389
bin	0.0001349952	2347
bin	0.0001358496	2319
bin	0.000136704	2291
bin	0.0001375584	2259
bin	0.0001384128	2241
bin	0.0001392672	2197
bin	0.0001401216	2177
bin	0.000140976	2181
bin	0.0001418304	2184
bin	0.0001426848	2158
bin	0.0001435392	2209
bin	0.0001443936	2292
bin	0.000145248	2274
bin	0.0001461024	2326
bin	0.0001469568	2289
bin	0.0001478112	2349
bin	0.0001486656	2422
bin	0.00014952	2349
bin	0.0001503744	2374
bin	0.0001512288	2401
bin	0.0001520832	2382
bin	0.0001529376	2302
bin	0.000153792	2264
bin	0.0001546464	2365
bin	0.0001555008	2286
bin	0.0001563552	2304
bin	0.0001572096	2214
bin	0.000158064	2182
bin	0.0001589184	2151
bin	0.0001597728	2097
bin	0.0001606272	2098
bin	0.0001614816	2045
bin	0.000162336	1952
bin	0.0001631904	1953
bin	0.0001640448	2018
bin	0.0001648992	1976
bin	0.0001657536	2040
bin	0.000166608	1968
bin	0.0001674624	2045
bin	0.0001683168	2047
bin	0.0001691712	2018
bin	0.0001700256	2064
bin	0.00017088	2005
bin	0.0001717344	2076
bin	0.0001725888	2146
bin	0.0001734432	2099
bin	0.0001742976	2175
bin	0.000175152	2161
bin	0.0001760064	2088
bin	0.0001768608	2104
bin	0.0001777152	2071
bin	0.0001785696	2129
bin	0.000179424	2027
bin	0.0001802784	2007
bin	0.0001811328	2003
bin	0.0001819872	1975
bin	0.0001828416	1901
bin	0.000183696	1972
bin	0.0001845504	2005
bin	0.0001854048	1924
bin	0.0001862592	1925
bin	0.0001871136	1912
bin	0.000187968	1903
bin	0.0001888224	1867
bin	0.0001896768	1882
bin	0.0001905312	1751
bin	0.0001913856	1841
bin	0.00019224	1807
bin	0.0001930944	1806
bin	0.0001939488	1800
bin	0.0001948032	1903
bin	0.0001956576	2001
bin	0.000196512	1983
bin	0.0001973664	1991
bin	0.0001982208	1977
bin	0.0001990752	2006
bin	0.0001999296	1965
bin	0.000200784	1973
bin	0.0002016384	1930
bin	0.0002024928	1892
bin	0.0002033472	1946
bin	0.0002042016	1967
bin	0.000205056	1888
bin	0.0002059104	1868
bin	0.0002067648	1874
bin	0.0002076192	1930
bin	0.0002084736	1895
bin	0.000209328	1856
bin	0.0002101824	1786
bin	0.0002110368	1792
bin	0.0002118912	1774
bin	0.0002127456	1788
bin	0.0002136	1748
bin	0.0002144544	1759
bin	0.0002153088	1699
bin	0.0002161632	1767
bin	0.0002170176	1829
bin	0.000217872	1830
bin	0.0002187264	1805
bin	0.0002195808	1848
bin	0.0002204352	1849
bin	0.0002212896	1910
bin	0.000222144	1900
bin	0.0002229984	1938
bin	0.0002238528	1942
bin	0.0002247072	1969
bin	0.0002255616	1878
bin	0.000226416	1913
bin	0.0002272704	1857
bin	0.0002281248	1888
bin	0.0002289792	1881
bin	0.0002298336	1801
bin	0.000230688	1701
bin	0.0002315424	1799
bin	0.0002323968	1764
bin	0.0002332512	1700
bin	0.0002341056	1720
bin	0.00023496	1701
bin	0.0002358144	1699
bin	0.0002366688	1687
bin	0.0002375232	1679
bin	0.0002383776	1713
bin	0.000239232	1725
bin	0.0002400864	1623
bin	0.0002409408	1722
bin	0.0002417952	1725
bin	0.0002426496	1712
bin	0.000243504	1785
bin	0.0002443584	1753
bin	0.0002452128	1794
bin	0.0002460672	1780
bin	0.0002469216	1749
bin	0.000247776	1747
bin	0.0002486304	1794
bin	0.0002494848	1770
bin	0.0002503392	1841
bin	0.0002511936	1857
bin	0.000252048	1823
bin	0.0002529024	1784
bin	0.0002537568	1830
bin	0.0002546112	1813
bin	0.0002554656	1848
bin	0.00025632	1834
bin	0.0002571744	1889
bin	0.0002580288	1830
bin	0.0002588832	1813
bin	0.0002597376	1798
bin	0.000260592	1768
bin	0.0002614464	1732
bin	0.0002623008	1775
bin	0.0002631552	1777
bin	0.0002640096	1885
bin	0.000264864	1866
bin	0.0002657184	1879
bin	0.0002665728	1845
bin	0.0002674272	1926
bin	0.0002682816	1911
bin	0.000269136	1938
bin	0.0002699904	1858
bin	0.0002708448	1882
bin	0.0002716992	1849
bin	0.0002725536	1922
bin	0.000273408	1869
bin	0.0002742624	1902
bin	0.0002751168	1907
bin	0.0002759712	1841
bin	0.0002768256	1856
bin	0.00027768	1889
bin	0.0002785344	1781
bin	0.0002793888	1878
bin	0.0002802432	1798
bin	0.0002810976	1784
bin	0.000281952	1776
bin	0.0002828064	1734
bin	0.0002836608	1732
bin	0.0002845152	1823
bin	0.0002853696	1774
bin	0.000286224	1691
bin	0.0002870784	1732
bin	0.0002879328	1701
bin	0.0002887872	1727
bin	0.0002896416	1669
bin	0.000290496	1679
bin	0.0002913504	1665
bin	0.0002922048	1710
bin	0.0002930592	1748
bin	0.0002939136	1705
bin	0.000294768	1700
bin	0.0002956224	1773
bin	0.0002964768	1784
bin	0.0002973312	1736
bin	0.0002981856	1787
bin	0.00029904	1745
bin	0.0002998944	1820
bin	0.0003007488	1792
bin	0.0003016032	1812
bin	0.0003024576	1760
bin	0.000303312	1686
bin	0.0003041664	1725
bin	0.0003050208	1730
bin	0.0003058752	1818
bin	0.0003067296	1711
bin	0.000307584	1695
bin	0.0003084384	1692
bin	0.0003092928	1703
bin	0.0003101472	1689
bin	0.0003110016	1750
bin	0.000311856	1788
bin	0.0003127104	1638
bin	0.0003135648	1684
bin	0.0003144192	1642
bin	0.0003152736	1626
bin	0.000316128	1635
bin	0.0003169824	1670
bin	0.0003178368	1715
bin	0.0003186912	1825
bin	0.0003195456	1827
bin	0.0003204	1764
bin	0.0003212544	1773
bin	0.0003221088	1826
bin	0.0003229632	1764
bin	0.0003238176	1789
bin	0.000324672	1695
bin	0.0003255264	1820
bin	0.0003263808	1796
bin	0.0003272352	1798
bin	0.0003280896	1828
bin	0.000328944	1786
bin	0.0003297984	1771
bin	0.0003306528	1726
bin	0.0003315072	1670
bin	0.0003323616	1722
bin	0.000333216	1722
bin	0.0003340704	1686
bin	0.0003349248	1647
bin	0.0003357792	1658
bin	0.0003366336	1654
bin	0.000337488	1692
bin	0.0003383424	1714
bin	0.0003391968	1738
bin	0.0003400512	1779
bin	0.0003409056	1729
bin	0.00034176	1732
bin	0.0003426144	1749
bin	0.0003434688	1800
bin	0.0003443232	1751
bin	0.0003451776	1731
bin	0.000346032	1732
bin	0.0003468864	1700
bin	0.0003477408	1756
bin	0.0003485952	1735
bin	0.0003494496	1739
bin	0.000350304	1837
bin	0.0003511584	1710
bin	0.0003520128	1804
bin	0.0003528672	1785
bin	0.0003537216	1739
bin	0.000354576	1726
bin	0.0003554304	1674
bin	0.0003562848	1624
bin	0.0003571392	1695
bin	0.0003579936	1630
bin	0.000358848	1643
bin	0.0003597024	1607
bin	0.0003605568	1680
bin	0.0003614112	1606
bin	0.0003622656	1686
bin	0.00036312	1595
bin	0.0003639744	1592
bin	0.0003648288	1641
bin	0.0003656832	1527
bin	0.0003665376	1655
bin	0.000367392	1602
bin	0.0003682464	1618
bin	0.0003691008	1648
bin	0.0003699552	1673
bin	0.0003708096	1680
bin	0.000371664	1714
bin	0.0003725184	1674
bin	0.0003733728	1686
bin	0.0003742272	1645
bin	0.0003750816	1693
bin	0.000375936	1653
bin	0.0003767904	1620
bin	0.0003776448	1634
bin	0.0003784992	1588
bin	0.0003793536	1655
bin	0.000380208	1694
bin	0.0003810624	1719
bin	0.0003819168	1580
bin	0.0003827712	1582
bin	0.0003836256	1604
bin	0.00038448	1662
bin	0.0003853344	1611
bin	0.0003861888	1600
bin	0.0003870432	1622
bin	0.0003878976	1654
bin	0.000388752	1529
bin	0.0003896064	1566
bin	0.0003904608	1647
bin	0.0003913152	1649
bin	0.0003921696	1716
bin	0.000393024	1695
bin	0.0003938784	1675
bin	0.0003947328	1694
bin	0.0003955872	1651
bin	0.0003964416	1670
bin	0.000397296	1613
bin	0.0003981504	1567
bin	0.0003990048	1569
bin	0.0003998592	1573
bin	0.0004007136	1601
bin	0.000401568	1589
bin	0.0004024224	1635
bin	0.0004032768	1580
bin	0.0004041312	1608
bin	0.0004049856	1578
bin	0.00040584	1541
bin	0.0004066944	1554
bin	0.0004075488	1556
bin	0.0004084032	1535
bin	0.0004092576	1525
bin	0.000410112	1522
bin	0.0004109664	1489
bin	0.0004118208	1485
bin	0.0004126752	1514
bin	0.0004135296	1532
bin	0.000414384	1560
bin	0.0004152384	1591
bin	0.0004160928	1494
bin	0.0004169472	1546
bin	0.0004178016	1592
bin	0.000418656	1600
bin	0.0004195104	1545
bin	0.0004203648	1605
bin	0.0004212192	1602
bin	0.0004220736	1561
bin	0.000422928	1549
bin	0.0004237824	1550
bin	0.0004246368	1517
bin	0.0004254912	1571
bin	0.0004263456	1646
bin	0.0004272	4211702
