version 2
run Permutation-33-20120710-22:18:29-28111
attr alg 1
attr buf 8
attr configname Permutation
attr datetime 20120710-22:18:29
attr delta 0.8
attr experiment Permutation
attr ext true
attr inifile altro.ini
attr iterationvars "$buf=8, $ext=true, $ofedge=2, $delta=0.8, $alg=1"
attr iterationvars2 "$buf=8, $ext=true, $ofedge=2, $delta=0.8, $alg=1, $repetition=0"
attr measurement "$buf=8, $ext=true, $ofedge=2, $delta=0.8, $alg=1"
attr network Torus3d_bub
attr ofedge 2
attr processid 28111
attr repetition 0
attr replication #0
attr resultdir altro-results
attr runnumber 33
attr seedset 33

scalar . 	alg 	1
scalar . 	buf 	8
scalar . 	delta 	0.8
scalar . 	ofedge 	2
scalar Torus3d_bub.timer 	#endTime 	0.003653784328041
scalar Torus3d_bub.timer 	#totalHops 	90192980
scalar Torus3d_bub.timer 	#totalPacks 	6291456
scalar Torus3d_bub.timer 	#totalDerouted 	1974815
scalar Torus3d_bub.timer 	#totalOutFlanked 	1974815
scalar Torus3d_bub.timer 	#totalCQRed 	0
scalar Torus3d_bub.timer 	#LB 	0.000786432
scalar Torus3d_bub.timer 	#ratio 	0.2152376630346
statistic Torus3d_bub.timer 	"Hop Times"
field count 6291456
field mean 7.643847660737e-05
field stddev 9.2442485922519e-05
field sum 480.9093122823
field sqrsum 0.090524316134604
field min 4.03791666e-07
field max 0.00263460499995
bin	-INF	0
bin	0	0
bin	7.12e-08	0
bin	1.424e-07	0
bin	2.136e-07	0
bin	2.848e-07	0
bin	3.56e-07	51
bin	4.272e-07	1405
bin	4.984e-07	4624
bin	5.696e-07	8012
bin	6.408e-07	11879
bin	7.12e-07	15786
bin	7.832e-07	19597
bin	8.544e-07	22768
bin	9.256e-07	25146
bin	9.968e-07	27939
bin	1.068e-06	30743
bin	1.1392e-06	34441
bin	1.2104e-06	38882
bin	1.2816e-06	44443
bin	1.3528e-06	50318
bin	1.424e-06	56706
bin	1.4952e-06	62300
bin	1.5664e-06	67434
bin	1.6376e-06	71105
bin	1.7088e-06	73206
bin	1.78e-06	74219
bin	1.8512e-06	73274
bin	1.9224e-06	71811
bin	1.9936e-06	68719
bin	2.0648e-06	65192
bin	2.136e-06	61413
bin	2.2072e-06	57412
bin	2.2784e-06	52810
bin	2.3496e-06	49058
bin	2.4208e-06	45133
bin	2.492e-06	41535
bin	2.5632e-06	38315
bin	2.6344e-06	35183
bin	2.7056e-06	32354
bin	2.7768e-06	29746
bin	2.848e-06	27627
bin	2.9192e-06	25392
bin	2.9904e-06	23667
bin	3.0616e-06	21915
bin	3.1328e-06	20151
bin	3.204e-06	18997
bin	3.2752e-06	17745
bin	3.3464e-06	16501
bin	3.4176e-06	15459
bin	3.4888e-06	14381
bin	3.56e-06	13358
bin	3.6312e-06	12681
bin	3.7024e-06	12124
bin	3.7736e-06	11366
bin	3.8448e-06	10800
bin	3.916e-06	10489
bin	3.9872e-06	9959
bin	4.0584e-06	9475
bin	4.1296e-06	9073
bin	4.2008e-06	8779
bin	4.272e-06	8374
bin	4.3432e-06	8213
bin	4.4144e-06	7898
bin	4.4856e-06	7640
bin	4.5568e-06	7398
bin	4.628e-06	7133
bin	4.6992e-06	6870
bin	4.7704e-06	6633
bin	4.8416e-06	6439
bin	4.9128e-06	6410
bin	4.984e-06	6210
bin	5.0552e-06	6027
bin	5.1264e-06	5912
bin	5.1976e-06	5717
bin	5.2688e-06	5656
bin	5.34e-06	5568
bin	5.4112e-06	5235
bin	5.4824e-06	5158
bin	5.5536e-06	5007
bin	5.6248e-06	4958
bin	5.696e-06	4946
bin	5.7672e-06	4781
bin	5.8384e-06	4733
bin	5.9096e-06	4620
bin	5.9808e-06	4545
bin	6.052e-06	4452
bin	6.1232e-06	4303
bin	6.1944e-06	4387
bin	6.2656e-06	4283
bin	6.3368e-06	4178
bin	6.408e-06	4113
bin	6.4792e-06	4012
bin	6.5504e-06	3976
bin	6.6216e-06	4079
bin	6.6928e-06	3927
bin	6.764e-06	3861
bin	6.8352e-06	3854
bin	6.9064e-06	3703
bin	6.9776e-06	3666
bin	7.0488e-06	3717
bin	7.12e-06	3571
bin	7.1912e-06	3571
bin	7.2624e-06	3564
bin	7.3336e-06	3454
bin	7.4048e-06	3492
bin	7.476e-06	3428
bin	7.5472e-06	3447
bin	7.6184e-06	3404
bin	7.6896e-06	3322
bin	7.7608e-06	3265
bin	7.832e-06	3180
bin	7.9032e-06	3127
bin	7.9744e-06	3109
bin	8.0456e-06	3085
bin	8.1168e-06	3058
bin	8.188e-06	2930
bin	8.2592e-06	3019
bin	8.3304e-06	3024
bin	8.4016e-06	2916
bin	8.4728e-06	2947
bin	8.544e-06	2943
bin	8.6152e-06	2980
bin	8.6864e-06	2907
bin	8.7576e-06	2865
bin	8.8288e-06	2725
bin	8.9e-06	2745
bin	8.9712e-06	2709
bin	9.0424e-06	2820
bin	9.1136e-06	2765
bin	9.1848e-06	2731
bin	9.256e-06	2660
bin	9.3272e-06	2744
bin	9.3984e-06	2692
bin	9.4696e-06	2593
bin	9.5408e-06	2674
bin	9.612e-06	2583
bin	9.6832e-06	2600
bin	9.7544e-06	2597
bin	9.8256e-06	2554
bin	9.8968e-06	2592
bin	9.968e-06	2427
bin	1.00392e-05	2488
bin	1.01104e-05	2517
bin	1.01816e-05	2417
bin	1.02528e-05	2396
bin	1.0324e-05	2408
bin	1.03952e-05	2435
bin	1.04664e-05	2507
bin	1.05376e-05	2335
bin	1.06088e-05	2397
bin	1.068e-05	2395
bin	1.07512e-05	2329
bin	1.08224e-05	2393
bin	1.08936e-05	2323
bin	1.09648e-05	2171
bin	1.1036e-05	2245
bin	1.11072e-05	2207
bin	1.11784e-05	2218
bin	1.12496e-05	2162
bin	1.13208e-05	2146
bin	1.1392e-05	2166
bin	1.14632e-05	2184
bin	1.15344e-05	2149
bin	1.16056e-05	2168
bin	1.16768e-05	2135
bin	1.1748e-05	2123
bin	1.18192e-05	2101
bin	1.18904e-05	2044
bin	1.19616e-05	2060
bin	1.20328e-05	1978
bin	1.2104e-05	2102
bin	1.21752e-05	2074
bin	1.22464e-05	1993
bin	1.23176e-05	2002
bin	1.23888e-05	1999
bin	1.246e-05	2019
bin	1.25312e-05	1979
bin	1.26024e-05	1988
bin	1.26736e-05	1972
bin	1.27448e-05	1941
bin	1.2816e-05	1956
bin	1.28872e-05	1873
bin	1.29584e-05	1892
bin	1.30296e-05	1863
bin	1.31008e-05	1865
bin	1.3172e-05	1897
bin	1.32432e-05	1787
bin	1.33144e-05	1859
bin	1.33856e-05	1819
bin	1.34568e-05	1836
bin	1.3528e-05	1877
bin	1.35992e-05	1840
bin	1.36704e-05	1792
bin	1.37416e-05	1812
bin	1.38128e-05	1801
bin	1.3884e-05	1799
bin	1.39552e-05	1773
bin	1.40264e-05	1761
bin	1.40976e-05	1771
bin	1.41688e-05	1768
bin	1.424e-05	1788
bin	1.43112e-05	1746
bin	1.43824e-05	1789
bin	1.44536e-05	1782
bin	1.45248e-05	1696
bin	1.4596e-05	1764
bin	1.46672e-05	1744
bin	1.47384e-05	1757
bin	1.48096e-05	1760
bin	1.48808e-05	1675
bin	1.4952e-05	1703
bin	1.50232e-05	1698
bin	1.50944e-05	1693
bin	1.51656e-05	1637
bin	1.52368e-05	1699
bin	1.5308e-05	1654
bin	1.53792e-05	1622
bin	1.54504e-05	1568
bin	1.55216e-05	1624
bin	1.55928e-05	1615
bin	1.5664e-05	1639
bin	1.57352e-05	1634
bin	1.58064e-05	1623
bin	1.58776e-05	1610
bin	1.59488e-05	1560
bin	1.602e-05	1631
bin	1.60912e-05	1619
bin	1.61624e-05	1537
bin	1.62336e-05	1589
bin	1.63048e-05	1593
bin	1.6376e-05	1636
bin	1.64472e-05	1550
bin	1.65184e-05	1627
bin	1.65896e-05	1619
bin	1.66608e-05	1509
bin	1.6732e-05	1571
bin	1.68032e-05	1516
bin	1.68744e-05	1533
bin	1.69456e-05	1516
bin	1.70168e-05	1566
bin	1.7088e-05	1465
bin	1.71592e-05	1536
bin	1.72304e-05	1542
bin	1.73016e-05	1505
bin	1.73728e-05	1522
bin	1.7444e-05	1504
bin	1.75152e-05	1528
bin	1.75864e-05	1546
bin	1.76576e-05	1473
bin	1.77288e-05	1547
bin	1.78e-05	1516
bin	1.78712e-05	1454
bin	1.79424e-05	1427
bin	1.80136e-05	1506
bin	1.80848e-05	1526
bin	1.8156e-05	1506
bin	1.82272e-05	1505
bin	1.82984e-05	1518
bin	1.83696e-05	1499
bin	1.84408e-05	1535
bin	1.8512e-05	1487
bin	1.85832e-05	1464
bin	1.86544e-05	1489
bin	1.87256e-05	1509
bin	1.87968e-05	1506
bin	1.8868e-05	1453
bin	1.89392e-05	1472
bin	1.90104e-05	1415
bin	1.90816e-05	1419
bin	1.91528e-05	1460
bin	1.9224e-05	1424
bin	1.92952e-05	1419
bin	1.93664e-05	1411
bin	1.94376e-05	1480
bin	1.95088e-05	1399
bin	1.958e-05	1388
bin	1.96512e-05	1476
bin	1.97224e-05	1520
bin	1.97936e-05	1463
bin	1.98648e-05	1469
bin	1.9936e-05	1433
bin	2.00072e-05	1405
bin	2.00784e-05	1416
bin	2.01496e-05	1498
bin	2.02208e-05	1484
bin	2.0292e-05	1452
bin	2.03632e-05	1482
bin	2.04344e-05	1403
bin	2.05056e-05	1413
bin	2.05768e-05	1412
bin	2.0648e-05	1392
bin	2.07192e-05	1357
bin	2.07904e-05	1385
bin	2.08616e-05	1486
bin	2.09328e-05	1453
bin	2.1004e-05	1472
bin	2.10752e-05	1429
bin	2.11464e-05	1428
bin	2.12176e-05	1426
bin	2.12888e-05	1398
bin	2.136e-05	1361
bin	2.14312e-05	1453
bin	2.15024e-05	1375
bin	2.15736e-05	1374
bin	2.16448e-05	1349
bin	2.1716e-05	1382
bin	2.17872e-05	1445
bin	2.18584e-05	1403
bin	2.19296e-05	1425
bin	2.20008e-05	1444
bin	2.2072e-05	1414
bin	2.21432e-05	1421
bin	2.22144e-05	1384
bin	2.22856e-05	1394
bin	2.23568e-05	1414
bin	2.2428e-05	1382
bin	2.24992e-05	1463
bin	2.25704e-05	1431
bin	2.26416e-05	1421
bin	2.27128e-05	1422
bin	2.2784e-05	1426
bin	2.28552e-05	1384
bin	2.29264e-05	1418
bin	2.29976e-05	1344
bin	2.30688e-05	1323
bin	2.314e-05	1256
bin	2.32112e-05	1314
bin	2.32824e-05	1316
bin	2.33536e-05	1419
bin	2.34248e-05	1332
bin	2.3496e-05	1321
bin	2.35672e-05	1393
bin	2.36384e-05	1354
bin	2.37096e-05	1363
bin	2.37808e-05	1318
bin	2.3852e-05	1401
bin	2.39232e-05	1377
bin	2.39944e-05	1383
bin	2.40656e-05	1408
bin	2.41368e-05	1395
bin	2.4208e-05	1382
bin	2.42792e-05	1400
bin	2.43504e-05	1405
bin	2.44216e-05	1394
bin	2.44928e-05	1399
bin	2.4564e-05	1377
bin	2.46352e-05	1378
bin	2.47064e-05	1361
bin	2.47776e-05	1426
bin	2.48488e-05	1358
bin	2.492e-05	1362
bin	2.49912e-05	1363
bin	2.50624e-05	1408
bin	2.51336e-05	1455
bin	2.52048e-05	1410
bin	2.5276e-05	1372
bin	2.53472e-05	1430
bin	2.54184e-05	1430
bin	2.54896e-05	1495
bin	2.55608e-05	1446
bin	2.5632e-05	1523
bin	2.57032e-05	1449
bin	2.57744e-05	1556
bin	2.58456e-05	1427
bin	2.59168e-05	1419
bin	2.5988e-05	1467
bin	2.60592e-05	1483
bin	2.61304e-05	1520
bin	2.62016e-05	1483
bin	2.62728e-05	1449
bin	2.6344e-05	1484
bin	2.64152e-05	1504
bin	2.64864e-05	1424
bin	2.65576e-05	1487
bin	2.66288e-05	1506
bin	2.67e-05	1505
bin	2.67712e-05	1459
bin	2.68424e-05	1471
bin	2.69136e-05	1425
bin	2.69848e-05	1482
bin	2.7056e-05	1393
bin	2.71272e-05	1417
bin	2.71984e-05	1426
bin	2.72696e-05	1385
bin	2.73408e-05	1375
bin	2.7412e-05	1368
bin	2.74832e-05	1446
bin	2.75544e-05	1401
bin	2.76256e-05	1377
bin	2.76968e-05	1425
bin	2.7768e-05	1456
bin	2.78392e-05	1374
bin	2.79104e-05	1393
bin	2.79816e-05	1318
bin	2.80528e-05	1377
bin	2.8124e-05	1428
bin	2.81952e-05	1416
bin	2.82664e-05	1437
bin	2.83376e-05	1416
bin	2.84088e-05	1426
bin	2.848e-05	1480
bin	2.85512e-05	1500
bin	2.86224e-05	1483
bin	2.86936e-05	1408
bin	2.87648e-05	1397
bin	2.8836e-05	1479
bin	2.89072e-05	1508
bin	2.89784e-05	1463
bin	2.90496e-05	1498
bin	2.91208e-05	1520
bin	2.9192e-05	1515
bin	2.92632e-05	1484
bin	2.93344e-05	1402
bin	2.94056e-05	1380
bin	2.94768e-05	1419
bin	2.9548e-05	1439
bin	2.96192e-05	1438
bin	2.96904e-05	1439
bin	2.97616e-05	1469
bin	2.98328e-05	1462
bin	2.9904e-05	1463
bin	2.99752e-05	1471
bin	3.00464e-05	1436
bin	3.01176e-05	1447
bin	3.01888e-05	1470
bin	3.026e-05	1532
bin	3.03312e-05	1496
bin	3.04024e-05	1573
bin	3.04736e-05	1568
bin	3.05448e-05	1616
bin	3.0616e-05	1511
bin	3.06872e-05	1547
bin	3.07584e-05	1555
bin	3.08296e-05	1510
bin	3.09008e-05	1469
bin	3.0972e-05	1540
bin	3.10432e-05	1444
bin	3.11144e-05	1456
bin	3.11856e-05	1566
bin	3.12568e-05	1473
bin	3.1328e-05	1486
bin	3.13992e-05	1496
bin	3.14704e-05	1462
bin	3.15416e-05	1509
bin	3.16128e-05	1355
bin	3.1684e-05	1393
bin	3.17552e-05	1409
bin	3.18264e-05	1398
bin	3.18976e-05	1418
bin	3.19688e-05	1441
bin	3.204e-05	1468
bin	3.21112e-05	1379
bin	3.21824e-05	1363
bin	3.22536e-05	1313
bin	3.23248e-05	1361
bin	3.2396e-05	1363
bin	3.24672e-05	1443
bin	3.25384e-05	1373
bin	3.26096e-05	1402
bin	3.26808e-05	1413
bin	3.2752e-05	1392
bin	3.28232e-05	1376
bin	3.28944e-05	1421
bin	3.29656e-05	1399
bin	3.30368e-05	1379
bin	3.3108e-05	1378
bin	3.31792e-05	1442
bin	3.32504e-05	1368
bin	3.33216e-05	1367
bin	3.33928e-05	1352
bin	3.3464e-05	1297
bin	3.35352e-05	1400
bin	3.36064e-05	1437
bin	3.36776e-05	1378
bin	3.37488e-05	1388
bin	3.382e-05	1408
bin	3.38912e-05	1420
bin	3.39624e-05	1387
bin	3.40336e-05	1385
bin	3.41048e-05	1451
bin	3.4176e-05	1461
bin	3.42472e-05	1445
bin	3.43184e-05	1403
bin	3.43896e-05	1455
bin	3.44608e-05	1420
bin	3.4532e-05	1432
bin	3.46032e-05	1432
bin	3.46744e-05	1346
bin	3.47456e-05	1324
bin	3.48168e-05	1378
bin	3.4888e-05	1372
bin	3.49592e-05	1313
bin	3.50304e-05	1399
bin	3.51016e-05	1429
bin	3.51728e-05	1452
bin	3.5244e-05	1416
bin	3.53152e-05	1436
bin	3.53864e-05	1405
bin	3.54576e-05	1391
bin	3.55288e-05	1334
bin	3.56e-05	3623772
statistic Torus3d_bub.timer 	"Life Times"
field count 6291456
field mean 0.0010119085583469
field stddev 0.00093296384739738
field sum 6366.3781708628
field sqrsum 11.918410510173
field min 7.33332949e-07
field max 0.003340417328041
bin	-INF	0
bin	0	23
bin	8.544e-07	655
bin	1.7088e-06	2100
bin	2.5632e-06	4442
bin	3.4176e-06	6927
bin	4.272e-06	9151
bin	5.1264e-06	11704
bin	5.9808e-06	14357
bin	6.8352e-06	16632
bin	7.6896e-06	19472
bin	8.544e-06	22406
bin	9.3984e-06	25205
bin	1.02528e-05	27547
bin	1.11072e-05	28653
bin	1.19616e-05	30356
bin	1.2816e-05	32471
bin	1.36704e-05	33859
bin	1.45248e-05	35433
bin	1.53792e-05	37027
bin	1.62336e-05	39008
bin	1.7088e-05	40678
bin	1.79424e-05	43396
bin	1.87968e-05	45195
bin	1.96512e-05	47632
bin	2.05056e-05	49743
bin	2.136e-05	52114
bin	2.22144e-05	54555
bin	2.30688e-05	57176
bin	2.39232e-05	59065
bin	2.47776e-05	60358
bin	2.5632e-05	61298
bin	2.64864e-05	61713
bin	2.73408e-05	61268
bin	2.81952e-05	60275
bin	2.90496e-05	57958
bin	2.9904e-05	55236
bin	3.07584e-05	52030
bin	3.16128e-05	46963
bin	3.24672e-05	41570
bin	3.33216e-05	37002
bin	3.4176e-05	33071
bin	3.50304e-05	29475
bin	3.58848e-05	26396
bin	3.67392e-05	23839
bin	3.75936e-05	21172
bin	3.8448e-05	19006
bin	3.93024e-05	16873
bin	4.01568e-05	15286
bin	4.10112e-05	13744
bin	4.18656e-05	12327
bin	4.272e-05	11318
bin	4.35744e-05	10368
bin	4.44288e-05	9762
bin	4.52832e-05	9536
bin	4.61376e-05	9105
bin	4.6992e-05	8634
bin	4.78464e-05	8447
bin	4.87008e-05	8094
bin	4.95552e-05	7990
bin	5.04096e-05	7713
bin	5.1264e-05	7686
bin	5.21184e-05	7554
bin	5.29728e-05	7406
bin	5.38272e-05	7323
bin	5.46816e-05	7254
bin	5.5536e-05	7411
bin	5.63904e-05	7142
bin	5.72448e-05	7105
bin	5.80992e-05	6942
bin	5.89536e-05	6930
bin	5.9808e-05	6850
bin	6.06624e-05	6853
bin	6.15168e-05	6670
bin	6.23712e-05	6605
bin	6.32256e-05	6575
bin	6.408e-05	6317
bin	6.49344e-05	6105
bin	6.57888e-05	5755
bin	6.66432e-05	5694
bin	6.74976e-05	5285
bin	6.8352e-05	5117
bin	6.92064e-05	4964
bin	7.00608e-05	4691
bin	7.09152e-05	4614
bin	7.17696e-05	4374
bin	7.2624e-05	4245
bin	7.34784e-05	4152
bin	7.43328e-05	4116
bin	7.51872e-05	3988
bin	7.60416e-05	3800
bin	7.6896e-05	3786
bin	7.77504e-05	3683
bin	7.86048e-05	3696
bin	7.94592e-05	3629
bin	8.03136e-05	3491
bin	8.1168e-05	3495
bin	8.20224e-05	3534
bin	8.28768e-05	3481
bin	8.37312e-05	3544
bin	8.45856e-05	3532
bin	8.544e-05	3409
bin	8.62944e-05	3506
bin	8.71488e-05	3526
bin	8.80032e-05	3436
bin	8.88576e-05	3587
bin	8.9712e-05	3503
bin	9.05664e-05	3535
bin	9.14208e-05	3539
bin	9.22752e-05	3576
bin	9.31296e-05	3601
bin	9.3984e-05	3550
bin	9.48384e-05	3499
bin	9.56928e-05	3499
bin	9.65472e-05	3413
bin	9.74016e-05	3439
bin	9.8256e-05	3301
bin	9.91104e-05	3235
bin	9.99648e-05	3154
bin	0.0001008192	3092
bin	0.0001016736	2989
bin	0.000102528	2906
bin	0.0001033824	2899
bin	0.0001042368	2790
bin	0.0001050912	2776
bin	0.0001059456	2637
bin	0.0001068	2633
bin	0.0001076544	2617
bin	0.0001085088	2586
bin	0.0001093632	2433
bin	0.0001102176	2433
bin	0.000111072	2442
bin	0.0001119264	2461
bin	0.0001127808	2461
bin	0.0001136352	2427
bin	0.0001144896	2496
bin	0.000115344	2404
bin	0.0001161984	2464
bin	0.0001170528	2421
bin	0.0001179072	2436
bin	0.0001187616	2553
bin	0.000119616	2577
bin	0.0001204704	2504
bin	0.0001213248	2451
bin	0.0001221792	2500
bin	0.0001230336	2512
bin	0.000123888	2581
bin	0.0001247424	2552
bin	0.0001255968	2630
bin	0.0001264512	2478
bin	0.0001273056	2449
bin	0.00012816	2528
bin	0.0001290144	2348
bin	0.0001298688	2326
bin	0.0001307232	2399
bin	0.0001315776	2271
bin	0.000132432	2234
bin	0.0001332864	2176
bin	0.0001341408	2100
bin	0.0001349952	2129
bin	0.0001358496	2175
bin	0.000136704	2065
bin	0.0001375584	2080
bin	0.0001384128	2074
bin	0.0001392672	2013
bin	0.0001401216	2087
bin	0.000140976	2011
bin	0.0001418304	2062
bin	0.0001426848	1967
bin	0.0001435392	2024
bin	0.0001443936	2031
bin	0.000145248	2001
bin	0.0001461024	2121
bin	0.0001469568	2074
bin	0.0001478112	2012
bin	0.0001486656	1978
bin	0.00014952	2033
bin	0.0001503744	2048
bin	0.0001512288	1987
bin	0.0001520832	2031
bin	0.0001529376	2019
bin	0.000153792	2072
bin	0.0001546464	2067
bin	0.0001555008	1993
bin	0.0001563552	2029
bin	0.0001572096	2042
bin	0.000158064	2121
bin	0.0001589184	2022
bin	0.0001597728	1861
bin	0.0001606272	1930
bin	0.0001614816	1922
bin	0.000162336	1924
bin	0.0001631904	1823
bin	0.0001640448	1805
bin	0.0001648992	1783
bin	0.0001657536	1751
bin	0.000166608	1731
bin	0.0001674624	1711
bin	0.0001683168	1693
bin	0.0001691712	1637
bin	0.0001700256	1669
bin	0.00017088	1669
bin	0.0001717344	1682
bin	0.0001725888	1649
bin	0.0001734432	1641
bin	0.0001742976	1672
bin	0.000175152	1645
bin	0.0001760064	1653
bin	0.0001768608	1606
bin	0.0001777152	1692
bin	0.0001785696	1682
bin	0.000179424	1720
bin	0.0001802784	1692
bin	0.0001811328	1615
bin	0.0001819872	1680
bin	0.0001828416	1625
bin	0.000183696	1648
bin	0.0001845504	1623
bin	0.0001854048	1616
bin	0.0001862592	1627
bin	0.0001871136	1689
bin	0.000187968	1682
bin	0.0001888224	1661
bin	0.0001896768	1633
bin	0.0001905312	1663
bin	0.0001913856	1710
bin	0.00019224	1668
bin	0.0001930944	1571
bin	0.0001939488	1538
bin	0.0001948032	1517
bin	0.0001956576	1544
bin	0.000196512	1515
bin	0.0001973664	1543
bin	0.0001982208	1487
bin	0.0001990752	1457
bin	0.0001999296	1503
bin	0.000200784	1491
bin	0.0002016384	1538
bin	0.0002024928	1520
bin	0.0002033472	1467
bin	0.0002042016	1431
bin	0.000205056	1456
bin	0.0002059104	1443
bin	0.0002067648	1471
bin	0.0002076192	1437
bin	0.0002084736	1463
bin	0.000209328	1423
bin	0.0002101824	1491
bin	0.0002110368	1498
bin	0.0002118912	1543
bin	0.0002127456	1591
bin	0.0002136	1556
bin	0.0002144544	1546
bin	0.0002153088	1491
bin	0.0002161632	1481
bin	0.0002170176	1508
bin	0.000217872	1512
bin	0.0002187264	1502
bin	0.0002195808	1515
bin	0.0002204352	1453
bin	0.0002212896	1418
bin	0.000222144	1409
bin	0.0002229984	1424
bin	0.0002238528	1415
bin	0.0002247072	1368
bin	0.0002255616	1346
bin	0.000226416	1359
bin	0.0002272704	1361
bin	0.0002281248	1353
bin	0.0002289792	1335
bin	0.0002298336	1225
bin	0.000230688	1247
bin	0.0002315424	1309
bin	0.0002323968	1277
bin	0.0002332512	1258
bin	0.0002341056	1330
bin	0.00023496	1284
bin	0.0002358144	1330
bin	0.0002366688	1360
bin	0.0002375232	1320
bin	0.0002383776	1351
bin	0.000239232	1317
bin	0.0002400864	1381
bin	0.0002409408	1331
bin	0.0002417952	1327
bin	0.0002426496	1244
bin	0.000243504	1286
bin	0.0002443584	1308
bin	0.0002452128	1295
bin	0.0002460672	1300
bin	0.0002469216	1285
bin	0.000247776	1298
bin	0.0002486304	1231
bin	0.0002494848	1332
bin	0.0002503392	1277
bin	0.0002511936	1251
bin	0.000252048	1220
bin	0.0002529024	1257
bin	0.0002537568	1139
bin	0.0002546112	1186
bin	0.0002554656	1227
bin	0.00025632	1183
bin	0.0002571744	1124
bin	0.0002580288	1107
bin	0.0002588832	1131
bin	0.0002597376	1203
bin	0.000260592	1152
bin	0.0002614464	1213
bin	0.0002623008	1166
bin	0.0002631552	1179
bin	0.0002640096	1195
bin	0.000264864	1166
bin	0.0002657184	1176
bin	0.0002665728	1170
bin	0.0002674272	1228
bin	0.0002682816	1201
bin	0.000269136	1194
bin	0.0002699904	1188
bin	0.0002708448	1202
bin	0.0002716992	1230
bin	0.0002725536	1175
bin	0.000273408	1185
bin	0.0002742624	1207
bin	0.0002751168	1157
bin	0.0002759712	1201
bin	0.0002768256	1244
bin	0.00027768	1218
bin	0.0002785344	1247
bin	0.0002793888	1286
bin	0.0002802432	1317
bin	0.0002810976	1202
bin	0.000281952	1287
bin	0.0002828064	1231
bin	0.0002836608	1234
bin	0.0002845152	1153
bin	0.0002853696	1158
bin	0.000286224	1145
bin	0.0002870784	1203
bin	0.0002879328	1140
bin	0.0002887872	1206
bin	0.0002896416	1171
bin	0.000290496	1139
bin	0.0002913504	1113
bin	0.0002922048	1103
bin	0.0002930592	1170
bin	0.0002939136	1094
bin	0.000294768	1125
bin	0.0002956224	1183
bin	0.0002964768	1204
bin	0.0002973312	1159
bin	0.0002981856	1164
bin	0.00029904	1137
bin	0.0002998944	1157
bin	0.0003007488	1140
bin	0.0003016032	1142
bin	0.0003024576	1148
bin	0.000303312	1191
bin	0.0003041664	1200
bin	0.0003050208	1223
bin	0.0003058752	1248
bin	0.0003067296	1251
bin	0.000307584	1176
bin	0.0003084384	1137
bin	0.0003092928	1152
bin	0.0003101472	1223
bin	0.0003110016	1140
bin	0.000311856	1172
bin	0.0003127104	1150
bin	0.0003135648	1136
bin	0.0003144192	1131
bin	0.0003152736	1199
bin	0.000316128	1177
bin	0.0003169824	1132
bin	0.0003178368	1201
bin	0.0003186912	1170
bin	0.0003195456	1156
bin	0.0003204	1108
bin	0.0003212544	1110
bin	0.0003221088	1151
bin	0.0003229632	1085
bin	0.0003238176	1087
bin	0.000324672	1133
bin	0.0003255264	1053
bin	0.0003263808	1098
bin	0.0003272352	1086
bin	0.0003280896	1060
bin	0.000328944	1062
bin	0.0003297984	1067
bin	0.0003306528	1091
bin	0.0003315072	1115
bin	0.0003323616	1166
bin	0.000333216	1169
bin	0.0003340704	1141
bin	0.0003349248	1218
bin	0.0003357792	1150
bin	0.0003366336	1178
bin	0.000337488	1197
bin	0.0003383424	1225
bin	0.0003391968	1200
bin	0.0003400512	1199
bin	0.0003409056	1158
bin	0.00034176	1179
bin	0.0003426144	1201
bin	0.0003434688	1202
bin	0.0003443232	1174
bin	0.0003451776	1106
bin	0.000346032	1106
bin	0.0003468864	1105
bin	0.0003477408	1112
bin	0.0003485952	1109
bin	0.0003494496	1098
bin	0.000350304	1128
bin	0.0003511584	1141
bin	0.0003520128	1064
bin	0.0003528672	1084
bin	0.0003537216	1066
bin	0.000354576	1051
bin	0.0003554304	1024
bin	0.0003562848	1023
bin	0.0003571392	1087
bin	0.0003579936	1088
bin	0.000358848	1055
bin	0.0003597024	1126
bin	0.0003605568	1161
bin	0.0003614112	1141
bin	0.0003622656	1109
bin	0.00036312	1177
bin	0.0003639744	1107
bin	0.0003648288	1157
bin	0.0003656832	1151
bin	0.0003665376	1198
bin	0.000367392	1177
bin	0.0003682464	1197
bin	0.0003691008	1186
bin	0.0003699552	1161
bin	0.0003708096	1105
bin	0.000371664	1161
bin	0.0003725184	1201
bin	0.0003733728	1151
bin	0.0003742272	1151
bin	0.0003750816	1114
bin	0.000375936	1150
bin	0.0003767904	1101
bin	0.0003776448	1087
bin	0.0003784992	1128
bin	0.0003793536	1114
bin	0.000380208	1074
bin	0.0003810624	1099
bin	0.0003819168	1077
bin	0.0003827712	1047
bin	0.0003836256	1104
bin	0.00038448	1124
bin	0.0003853344	1103
bin	0.0003861888	1113
bin	0.0003870432	1155
bin	0.0003878976	1139
bin	0.000388752	1157
bin	0.0003896064	1163
bin	0.0003904608	1057
bin	0.0003913152	1082
bin	0.0003921696	1135
bin	0.000393024	1116
bin	0.0003938784	1153
bin	0.0003947328	1178
bin	0.0003955872	1107
bin	0.0003964416	1163
bin	0.000397296	1161
bin	0.0003981504	1139
bin	0.0003990048	1185
bin	0.0003998592	1103
bin	0.0004007136	1124
bin	0.000401568	1122
bin	0.0004024224	1134
bin	0.0004032768	1125
bin	0.0004041312	1128
bin	0.0004049856	1175
bin	0.00040584	1217
bin	0.0004066944	1142
bin	0.0004075488	1185
bin	0.0004084032	1223
bin	0.0004092576	1174
bin	0.000410112	1124
bin	0.0004109664	1117
bin	0.0004118208	1013
bin	0.0004126752	1062
bin	0.0004135296	1035
bin	0.000414384	1046
bin	0.0004152384	1081
bin	0.0004160928	1106
bin	0.0004169472	1033
bin	0.0004178016	1090
bin	0.000418656	1116
bin	0.0004195104	1063
bin	0.0004203648	1069
bin	0.0004212192	1189
bin	0.0004220736	1101
bin	0.000422928	1127
bin	0.0004237824	1143
bin	0.0004246368	1170
bin	0.0004254912	1160
bin	0.0004263456	1156
bin	0.0004272	3709926
