version 2
run Permutation-17-20120710-21:09:57-28077
attr alg 1
attr buf 8
attr configname Permutation
attr datetime 20120710-21:09:57
attr delta 1
attr experiment Permutation
attr ext true
attr inifile altro.ini
attr iterationvars "$buf=8, $ext=true, $ofedge=1, $delta=1, $alg=1"
attr iterationvars2 "$buf=8, $ext=true, $ofedge=1, $delta=1, $alg=1, $repetition=0"
attr measurement "$buf=8, $ext=true, $ofedge=1, $delta=1, $alg=1"
attr network Torus3d_bub
attr ofedge 1
attr processid 28077
attr repetition 0
attr replication #0
attr resultdir altro-results
attr runnumber 17
attr seedset 17

scalar . 	alg 	1
scalar . 	buf 	8
scalar . 	delta 	1
scalar . 	ofedge 	1
scalar Torus3d_bub.timer 	#endTime 	0.005073702992552
scalar Torus3d_bub.timer 	#totalHops 	86672493
scalar Torus3d_bub.timer 	#totalPacks 	6291456
scalar Torus3d_bub.timer 	#totalDerouted 	2405409
scalar Torus3d_bub.timer 	#totalOutFlanked 	2405409
scalar Torus3d_bub.timer 	#totalCQRed 	0
scalar Torus3d_bub.timer 	#LB 	0.000786432
scalar Torus3d_bub.timer 	#ratio 	0.1550015838835
statistic Torus3d_bub.timer 	"Hop Times"
field count 6291456
field mean 0.00016572051361525
field stddev 0.00014771075482995
field sum 1042.6233197078
field sqrsum 0.31005397593025
field min 4.03791666e-07
field max 0.002959940329556
bin	-INF	0
bin	0	0
bin	7.12e-08	0
bin	1.424e-07	0
bin	2.136e-07	0
bin	2.848e-07	0
bin	3.56e-07	22
bin	4.272e-07	665
bin	4.984e-07	2104
bin	5.696e-07	3203
bin	6.408e-07	4466
bin	7.12e-07	5787
bin	7.832e-07	7113
bin	8.544e-07	8334
bin	9.256e-07	9544
bin	9.968e-07	10917
bin	1.068e-06	11929
bin	1.1392e-06	13650
bin	1.2104e-06	15098
bin	1.2816e-06	16609
bin	1.3528e-06	18793
bin	1.424e-06	20665
bin	1.4952e-06	22666
bin	1.5664e-06	24363
bin	1.6376e-06	25509
bin	1.7088e-06	27073
bin	1.78e-06	27339
bin	1.8512e-06	27438
bin	1.9224e-06	27157
bin	1.9936e-06	26539
bin	2.0648e-06	25609
bin	2.136e-06	24300
bin	2.2072e-06	22917
bin	2.2784e-06	21721
bin	2.3496e-06	20422
bin	2.4208e-06	19149
bin	2.492e-06	17879
bin	2.5632e-06	16581
bin	2.6344e-06	15235
bin	2.7056e-06	14225
bin	2.7768e-06	13136
bin	2.848e-06	12549
bin	2.9192e-06	11587
bin	2.9904e-06	10903
bin	3.0616e-06	10160
bin	3.1328e-06	9588
bin	3.204e-06	9056
bin	3.2752e-06	8538
bin	3.3464e-06	8022
bin	3.4176e-06	7487
bin	3.4888e-06	7209
bin	3.56e-06	6690
bin	3.6312e-06	6500
bin	3.7024e-06	6082
bin	3.7736e-06	5699
bin	3.8448e-06	5609
bin	3.916e-06	5290
bin	3.9872e-06	5234
bin	4.0584e-06	4944
bin	4.1296e-06	4761
bin	4.2008e-06	4505
bin	4.272e-06	4344
bin	4.3432e-06	4317
bin	4.4144e-06	4188
bin	4.4856e-06	3980
bin	4.5568e-06	3913
bin	4.628e-06	3729
bin	4.6992e-06	3684
bin	4.7704e-06	3555
bin	4.8416e-06	3517
bin	4.9128e-06	3303
bin	4.984e-06	3260
bin	5.0552e-06	3283
bin	5.1264e-06	3224
bin	5.1976e-06	3241
bin	5.2688e-06	3054
bin	5.34e-06	2992
bin	5.4112e-06	3054
bin	5.4824e-06	2878
bin	5.5536e-06	2877
bin	5.6248e-06	2845
bin	5.696e-06	2735
bin	5.7672e-06	2828
bin	5.8384e-06	2657
bin	5.9096e-06	2671
bin	5.9808e-06	2639
bin	6.052e-06	2597
bin	6.1232e-06	2556
bin	6.1944e-06	2560
bin	6.2656e-06	2495
bin	6.3368e-06	2421
bin	6.408e-06	2506
bin	6.4792e-06	2498
bin	6.5504e-06	2414
bin	6.6216e-06	2365
bin	6.6928e-06	2360
bin	6.764e-06	2347
bin	6.8352e-06	2234
bin	6.9064e-06	2298
bin	6.9776e-06	2339
bin	7.0488e-06	2250
bin	7.12e-06	2249
bin	7.1912e-06	2150
bin	7.2624e-06	2185
bin	7.3336e-06	2143
bin	7.4048e-06	2080
bin	7.476e-06	2114
bin	7.5472e-06	2077
bin	7.6184e-06	2023
bin	7.6896e-06	2074
bin	7.7608e-06	2029
bin	7.832e-06	2076
bin	7.9032e-06	1992
bin	7.9744e-06	1990
bin	8.0456e-06	1943
bin	8.1168e-06	1860
bin	8.188e-06	1867
bin	8.2592e-06	1916
bin	8.3304e-06	1896
bin	8.4016e-06	1860
bin	8.4728e-06	1836
bin	8.544e-06	1840
bin	8.6152e-06	1881
bin	8.6864e-06	1750
bin	8.7576e-06	1744
bin	8.8288e-06	1738
bin	8.9e-06	1785
bin	8.9712e-06	1741
bin	9.0424e-06	1762
bin	9.1136e-06	1794
bin	9.1848e-06	1645
bin	9.256e-06	1689
bin	9.3272e-06	1628
bin	9.3984e-06	1646
bin	9.4696e-06	1606
bin	9.5408e-06	1615
bin	9.612e-06	1673
bin	9.6832e-06	1645
bin	9.7544e-06	1563
bin	9.8256e-06	1644
bin	9.8968e-06	1700
bin	9.968e-06	1610
bin	1.00392e-05	1616
bin	1.01104e-05	1587
bin	1.01816e-05	1553
bin	1.02528e-05	1566
bin	1.0324e-05	1604
bin	1.03952e-05	1608
bin	1.04664e-05	1532
bin	1.05376e-05	1593
bin	1.06088e-05	1531
bin	1.068e-05	1585
bin	1.07512e-05	1529
bin	1.08224e-05	1556
bin	1.08936e-05	1522
bin	1.09648e-05	1503
bin	1.1036e-05	1502
bin	1.11072e-05	1473
bin	1.11784e-05	1495
bin	1.12496e-05	1499
bin	1.13208e-05	1508
bin	1.1392e-05	1462
bin	1.14632e-05	1510
bin	1.15344e-05	1456
bin	1.16056e-05	1455
bin	1.16768e-05	1391
bin	1.1748e-05	1380
bin	1.18192e-05	1348
bin	1.18904e-05	1287
bin	1.19616e-05	1322
bin	1.20328e-05	1337
bin	1.2104e-05	1312
bin	1.21752e-05	1302
bin	1.22464e-05	1313
bin	1.23176e-05	1297
bin	1.23888e-05	1286
bin	1.246e-05	1262
bin	1.25312e-05	1245
bin	1.26024e-05	1292
bin	1.26736e-05	1202
bin	1.27448e-05	1272
bin	1.2816e-05	1300
bin	1.28872e-05	1251
bin	1.29584e-05	1282
bin	1.30296e-05	1183
bin	1.31008e-05	1224
bin	1.3172e-05	1244
bin	1.32432e-05	1142
bin	1.33144e-05	1153
bin	1.33856e-05	1195
bin	1.34568e-05	1215
bin	1.3528e-05	1192
bin	1.35992e-05	1194
bin	1.36704e-05	1203
bin	1.37416e-05	1198
bin	1.38128e-05	1163
bin	1.3884e-05	1162
bin	1.39552e-05	1183
bin	1.40264e-05	1122
bin	1.40976e-05	1096
bin	1.41688e-05	1117
bin	1.424e-05	1084
bin	1.43112e-05	1174
bin	1.43824e-05	1067
bin	1.44536e-05	1118
bin	1.45248e-05	1124
bin	1.4596e-05	1114
bin	1.46672e-05	1074
bin	1.47384e-05	1058
bin	1.48096e-05	1030
bin	1.48808e-05	1106
bin	1.4952e-05	1027
bin	1.50232e-05	1046
bin	1.50944e-05	1052
bin	1.51656e-05	1088
bin	1.52368e-05	1042
bin	1.5308e-05	1109
bin	1.53792e-05	1145
bin	1.54504e-05	1098
bin	1.55216e-05	1084
bin	1.55928e-05	1044
bin	1.5664e-05	1026
bin	1.57352e-05	1013
bin	1.58064e-05	1067
bin	1.58776e-05	1065
bin	1.59488e-05	996
bin	1.602e-05	1026
bin	1.60912e-05	1021
bin	1.61624e-05	1032
bin	1.62336e-05	1036
bin	1.63048e-05	1021
bin	1.6376e-05	995
bin	1.64472e-05	963
bin	1.65184e-05	995
bin	1.65896e-05	1054
bin	1.66608e-05	1047
bin	1.6732e-05	1011
bin	1.68032e-05	1026
bin	1.68744e-05	1038
bin	1.69456e-05	1041
bin	1.70168e-05	968
bin	1.7088e-05	976
bin	1.71592e-05	917
bin	1.72304e-05	977
bin	1.73016e-05	957
bin	1.73728e-05	1007
bin	1.7444e-05	1004
bin	1.75152e-05	983
bin	1.75864e-05	1028
bin	1.76576e-05	1028
bin	1.77288e-05	1029
bin	1.78e-05	1048
bin	1.78712e-05	1050
bin	1.79424e-05	993
bin	1.80136e-05	1054
bin	1.80848e-05	1007
bin	1.8156e-05	1029
bin	1.82272e-05	1019
bin	1.82984e-05	1018
bin	1.83696e-05	968
bin	1.84408e-05	1030
bin	1.8512e-05	1026
bin	1.85832e-05	996
bin	1.86544e-05	1044
bin	1.87256e-05	1032
bin	1.87968e-05	1025
bin	1.8868e-05	984
bin	1.89392e-05	985
bin	1.90104e-05	1036
bin	1.90816e-05	1012
bin	1.91528e-05	1063
bin	1.9224e-05	1028
bin	1.92952e-05	1002
bin	1.93664e-05	1010
bin	1.94376e-05	1034
bin	1.95088e-05	1015
bin	1.958e-05	1009
bin	1.96512e-05	991
bin	1.97224e-05	995
bin	1.97936e-05	945
bin	1.98648e-05	989
bin	1.9936e-05	951
bin	2.00072e-05	974
bin	2.00784e-05	994
bin	2.01496e-05	962
bin	2.02208e-05	955
bin	2.0292e-05	908
bin	2.03632e-05	929
bin	2.04344e-05	912
bin	2.05056e-05	912
bin	2.05768e-05	939
bin	2.0648e-05	835
bin	2.07192e-05	852
bin	2.07904e-05	873
bin	2.08616e-05	896
bin	2.09328e-05	904
bin	2.1004e-05	864
bin	2.10752e-05	931
bin	2.11464e-05	860
bin	2.12176e-05	873
bin	2.12888e-05	832
bin	2.136e-05	886
bin	2.14312e-05	896
bin	2.15024e-05	900
bin	2.15736e-05	886
bin	2.16448e-05	934
bin	2.1716e-05	918
bin	2.17872e-05	954
bin	2.18584e-05	923
bin	2.19296e-05	947
bin	2.20008e-05	940
bin	2.2072e-05	921
bin	2.21432e-05	895
bin	2.22144e-05	930
bin	2.22856e-05	851
bin	2.23568e-05	888
bin	2.2428e-05	892
bin	2.24992e-05	898
bin	2.25704e-05	899
bin	2.26416e-05	885
bin	2.27128e-05	841
bin	2.2784e-05	877
bin	2.28552e-05	904
bin	2.29264e-05	846
bin	2.29976e-05	896
bin	2.30688e-05	886
bin	2.314e-05	865
bin	2.32112e-05	878
bin	2.32824e-05	891
bin	2.33536e-05	899
bin	2.34248e-05	895
bin	2.3496e-05	915
bin	2.35672e-05	893
bin	2.36384e-05	908
bin	2.37096e-05	896
bin	2.37808e-05	893
bin	2.3852e-05	864
bin	2.39232e-05	858
bin	2.39944e-05	852
bin	2.40656e-05	832
bin	2.41368e-05	789
bin	2.4208e-05	797
bin	2.42792e-05	810
bin	2.43504e-05	861
bin	2.44216e-05	858
bin	2.44928e-05	876
bin	2.4564e-05	811
bin	2.46352e-05	821
bin	2.47064e-05	794
bin	2.47776e-05	826
bin	2.48488e-05	833
bin	2.492e-05	823
bin	2.49912e-05	829
bin	2.50624e-05	842
bin	2.51336e-05	842
bin	2.52048e-05	810
bin	2.5276e-05	855
bin	2.53472e-05	836
bin	2.54184e-05	847
bin	2.54896e-05	833
bin	2.55608e-05	819
bin	2.5632e-05	843
bin	2.57032e-05	826
bin	2.57744e-05	836
bin	2.58456e-05	835
bin	2.59168e-05	838
bin	2.5988e-05	814
bin	2.60592e-05	795
bin	2.61304e-05	837
bin	2.62016e-05	840
bin	2.62728e-05	822
bin	2.6344e-05	807
bin	2.64152e-05	815
bin	2.64864e-05	817
bin	2.65576e-05	835
bin	2.66288e-05	789
bin	2.67e-05	785
bin	2.67712e-05	797
bin	2.68424e-05	820
bin	2.69136e-05	773
bin	2.69848e-05	781
bin	2.7056e-05	766
bin	2.71272e-05	764
bin	2.71984e-05	823
bin	2.72696e-05	810
bin	2.73408e-05	787
bin	2.7412e-05	720
bin	2.74832e-05	736
bin	2.75544e-05	735
bin	2.76256e-05	792
bin	2.76968e-05	787
bin	2.7768e-05	783
bin	2.78392e-05	791
bin	2.79104e-05	790
bin	2.79816e-05	819
bin	2.80528e-05	796
bin	2.8124e-05	802
bin	2.81952e-05	797
bin	2.82664e-05	787
bin	2.83376e-05	775
bin	2.84088e-05	798
bin	2.848e-05	812
bin	2.85512e-05	825
bin	2.86224e-05	797
bin	2.86936e-05	821
bin	2.87648e-05	793
bin	2.8836e-05	814
bin	2.89072e-05	807
bin	2.89784e-05	797
bin	2.90496e-05	833
bin	2.91208e-05	801
bin	2.9192e-05	827
bin	2.92632e-05	773
bin	2.93344e-05	824
bin	2.94056e-05	787
bin	2.94768e-05	811
bin	2.9548e-05	792
bin	2.96192e-05	782
bin	2.96904e-05	757
bin	2.97616e-05	774
bin	2.98328e-05	788
bin	2.9904e-05	787
bin	2.99752e-05	797
bin	3.00464e-05	818
bin	3.01176e-05	797
bin	3.01888e-05	796
bin	3.026e-05	796
bin	3.03312e-05	800
bin	3.04024e-05	787
bin	3.04736e-05	767
bin	3.05448e-05	797
bin	3.0616e-05	805
bin	3.06872e-05	796
bin	3.07584e-05	824
bin	3.08296e-05	831
bin	3.09008e-05	795
bin	3.0972e-05	771
bin	3.10432e-05	750
bin	3.11144e-05	762
bin	3.11856e-05	805
bin	3.12568e-05	790
bin	3.1328e-05	818
bin	3.13992e-05	770
bin	3.14704e-05	783
bin	3.15416e-05	790
bin	3.16128e-05	819
bin	3.1684e-05	790
bin	3.17552e-05	842
bin	3.18264e-05	794
bin	3.18976e-05	763
bin	3.19688e-05	763
bin	3.204e-05	853
bin	3.21112e-05	790
bin	3.21824e-05	812
bin	3.22536e-05	799
bin	3.23248e-05	805
bin	3.2396e-05	819
bin	3.24672e-05	753
bin	3.25384e-05	758
bin	3.26096e-05	775
bin	3.26808e-05	788
bin	3.2752e-05	784
bin	3.28232e-05	793
bin	3.28944e-05	778
bin	3.29656e-05	767
bin	3.30368e-05	730
bin	3.3108e-05	769
bin	3.31792e-05	714
bin	3.32504e-05	753
bin	3.33216e-05	741
bin	3.33928e-05	764
bin	3.3464e-05	754
bin	3.35352e-05	775
bin	3.36064e-05	763
bin	3.36776e-05	744
bin	3.37488e-05	717
bin	3.382e-05	695
bin	3.38912e-05	744
bin	3.39624e-05	746
bin	3.40336e-05	741
bin	3.41048e-05	817
bin	3.4176e-05	772
bin	3.42472e-05	795
bin	3.43184e-05	775
bin	3.43896e-05	812
bin	3.44608e-05	782
bin	3.4532e-05	733
bin	3.46032e-05	757
bin	3.46744e-05	757
bin	3.47456e-05	760
bin	3.48168e-05	785
bin	3.4888e-05	701
bin	3.49592e-05	713
bin	3.50304e-05	733
bin	3.51016e-05	720
bin	3.51728e-05	711
bin	3.5244e-05	676
bin	3.53152e-05	714
bin	3.53864e-05	680
bin	3.54576e-05	694
bin	3.55288e-05	737
bin	3.56e-05	5035410
statistic Torus3d_bub.timer 	"Life Times"
field count 6291456
field mean 0.0020655842899135
field stddev 0.0013373481821313
field sum 12995.532674282
field sqrsum 38.095636406759
field min 6.47333333e-07
field max 0.004967439992552
bin	-INF	0
bin	0	16
bin	8.544e-07	383
bin	1.7088e-06	1198
bin	2.5632e-06	2057
bin	3.4176e-06	3161
bin	4.272e-06	4206
bin	5.1264e-06	5450
bin	5.9808e-06	6478
bin	6.8352e-06	7728
bin	7.6896e-06	8693
bin	8.544e-06	9967
bin	9.3984e-06	11320
bin	1.02528e-05	12297
bin	1.11072e-05	13090
bin	1.19616e-05	13835
bin	1.2816e-05	14657
bin	1.36704e-05	15472
bin	1.45248e-05	15986
bin	1.53792e-05	16843
bin	1.62336e-05	17361
bin	1.7088e-05	18170
bin	1.79424e-05	18581
bin	1.87968e-05	19648
bin	1.96512e-05	20535
bin	2.05056e-05	21180
bin	2.136e-05	22210
bin	2.22144e-05	23140
bin	2.30688e-05	23956
bin	2.39232e-05	24594
bin	2.47776e-05	24774
bin	2.5632e-05	24337
bin	2.64864e-05	23396
bin	2.73408e-05	22176
bin	2.81952e-05	20932
bin	2.90496e-05	19839
bin	2.9904e-05	18201
bin	3.07584e-05	16751
bin	3.16128e-05	15548
bin	3.24672e-05	14259
bin	3.33216e-05	12767
bin	3.4176e-05	11512
bin	3.50304e-05	10525
bin	3.58848e-05	9352
bin	3.67392e-05	8784
bin	3.75936e-05	8210
bin	3.8448e-05	7704
bin	3.93024e-05	7241
bin	4.01568e-05	6898
bin	4.10112e-05	6618
bin	4.18656e-05	6331
bin	4.272e-05	6190
bin	4.35744e-05	5937
bin	4.44288e-05	5799
bin	4.52832e-05	5800
bin	4.61376e-05	5581
bin	4.6992e-05	5489
bin	4.78464e-05	5294
bin	4.87008e-05	5272
bin	4.95552e-05	5209
bin	5.04096e-05	4997
bin	5.1264e-05	4798
bin	5.21184e-05	4563
bin	5.29728e-05	4447
bin	5.38272e-05	4287
bin	5.46816e-05	4123
bin	5.5536e-05	3905
bin	5.63904e-05	3765
bin	5.72448e-05	3536
bin	5.80992e-05	3400
bin	5.89536e-05	3275
bin	5.9808e-05	3206
bin	6.06624e-05	3151
bin	6.15168e-05	2978
bin	6.23712e-05	2907
bin	6.32256e-05	2833
bin	6.408e-05	2748
bin	6.49344e-05	2771
bin	6.57888e-05	2702
bin	6.66432e-05	2595
bin	6.74976e-05	2601
bin	6.8352e-05	2591
bin	6.92064e-05	2561
bin	7.00608e-05	2541
bin	7.09152e-05	2580
bin	7.17696e-05	2602
bin	7.2624e-05	2616
bin	7.34784e-05	2525
bin	7.43328e-05	2454
bin	7.51872e-05	2498
bin	7.60416e-05	2541
bin	7.6896e-05	2561
bin	7.77504e-05	2501
bin	7.86048e-05	2443
bin	7.94592e-05	2381
bin	8.03136e-05	2303
bin	8.1168e-05	2235
bin	8.20224e-05	2137
bin	8.28768e-05	2212
bin	8.37312e-05	2171
bin	8.45856e-05	2062
bin	8.544e-05	2057
bin	8.62944e-05	2021
bin	8.71488e-05	1999
bin	8.80032e-05	1933
bin	8.88576e-05	1896
bin	8.9712e-05	1962
bin	9.05664e-05	1952
bin	9.14208e-05	1915
bin	9.22752e-05	1901
bin	9.31296e-05	1891
bin	9.3984e-05	1856
bin	9.48384e-05	1866
bin	9.56928e-05	1871
bin	9.65472e-05	1868
bin	9.74016e-05	1913
bin	9.8256e-05	1904
bin	9.91104e-05	1900
bin	9.99648e-05	1862
bin	0.0001008192	1872
bin	0.0001016736	1850
bin	0.000102528	1907
bin	0.0001033824	1841
bin	0.0001042368	1912
bin	0.0001050912	1778
bin	0.0001059456	1802
bin	0.0001068	1768
bin	0.0001076544	1722
bin	0.0001085088	1737
bin	0.0001093632	1728
bin	0.0001102176	1633
bin	0.000111072	1555
bin	0.0001119264	1686
bin	0.0001127808	1619
bin	0.0001136352	1676
bin	0.0001144896	1613
bin	0.000115344	1698
bin	0.0001161984	1662
bin	0.0001170528	1662
bin	0.0001179072	1595
bin	0.0001187616	1688
bin	0.000119616	1608
bin	0.0001204704	1590
bin	0.0001213248	1641
bin	0.0001221792	1658
bin	0.0001230336	1628
bin	0.000123888	1602
bin	0.0001247424	1566
bin	0.0001255968	1631
bin	0.0001264512	1600
bin	0.0001273056	1663
bin	0.00012816	1621
bin	0.0001290144	1501
bin	0.0001298688	1578
bin	0.0001307232	1519
bin	0.0001315776	1551
bin	0.000132432	1530
bin	0.0001332864	1476
bin	0.0001341408	1474
bin	0.0001349952	1443
bin	0.0001358496	1501
bin	0.000136704	1445
bin	0.0001375584	1423
bin	0.0001384128	1404
bin	0.0001392672	1441
bin	0.0001401216	1350
bin	0.000140976	1364
bin	0.0001418304	1403
bin	0.0001426848	1399
bin	0.0001435392	1388
bin	0.0001443936	1381
bin	0.000145248	1375
bin	0.0001461024	1349
bin	0.0001469568	1388
bin	0.0001478112	1400
bin	0.0001486656	1408
bin	0.00014952	1406
bin	0.0001503744	1380
bin	0.0001512288	1382
bin	0.0001520832	1325
bin	0.0001529376	1361
bin	0.000153792	1327
bin	0.0001546464	1358
bin	0.0001555008	1370
bin	0.0001563552	1326
bin	0.0001572096	1281
bin	0.000158064	1276
bin	0.0001589184	1285
bin	0.0001597728	1269
bin	0.0001606272	1227
bin	0.0001614816	1235
bin	0.000162336	1176
bin	0.0001631904	1142
bin	0.0001640448	1189
bin	0.0001648992	1245
bin	0.0001657536	1256
bin	0.000166608	1236
bin	0.0001674624	1257
bin	0.0001683168	1266
bin	0.0001691712	1224
bin	0.0001700256	1202
bin	0.00017088	1175
bin	0.0001717344	1195
bin	0.0001725888	1163
bin	0.0001734432	1185
bin	0.0001742976	1160
bin	0.000175152	1227
bin	0.0001760064	1176
bin	0.0001768608	1178
bin	0.0001777152	1130
bin	0.0001785696	1108
bin	0.000179424	1110
bin	0.0001802784	1121
bin	0.0001811328	1117
bin	0.0001819872	1057
bin	0.0001828416	1086
bin	0.000183696	1090
bin	0.0001845504	1079
bin	0.0001854048	1106
bin	0.0001862592	1134
bin	0.0001871136	1051
bin	0.000187968	1040
bin	0.0001888224	1009
bin	0.0001896768	1046
bin	0.0001905312	968
bin	0.0001913856	1052
bin	0.00019224	1035
bin	0.0001930944	1044
bin	0.0001939488	1047
bin	0.0001948032	1064
bin	0.0001956576	1065
bin	0.000196512	1049
bin	0.0001973664	1060
bin	0.0001982208	1048
bin	0.0001990752	1015
bin	0.0001999296	1021
bin	0.000200784	1039
bin	0.0002016384	1013
bin	0.0002024928	967
bin	0.0002033472	1076
bin	0.0002042016	1014
bin	0.000205056	970
bin	0.0002059104	962
bin	0.0002067648	978
bin	0.0002076192	984
bin	0.0002084736	962
bin	0.000209328	929
bin	0.0002101824	918
bin	0.0002110368	908
bin	0.0002118912	916
bin	0.0002127456	975
bin	0.0002136	930
bin	0.0002144544	908
bin	0.0002153088	962
bin	0.0002161632	953
bin	0.0002170176	940
bin	0.000217872	928
bin	0.0002187264	939
bin	0.0002195808	916
bin	0.0002204352	902
bin	0.0002212896	876
bin	0.000222144	932
bin	0.0002229984	902
bin	0.0002238528	903
bin	0.0002247072	847
bin	0.0002255616	902
bin	0.000226416	895
bin	0.0002272704	876
bin	0.0002281248	895
bin	0.0002289792	894
bin	0.0002298336	904
bin	0.000230688	899
bin	0.0002315424	905
bin	0.0002323968	884
bin	0.0002332512	918
bin	0.0002341056	924
bin	0.00023496	870
bin	0.0002358144	921
bin	0.0002366688	908
bin	0.0002375232	919
bin	0.0002383776	936
bin	0.000239232	907
bin	0.0002400864	928
bin	0.0002409408	885
bin	0.0002417952	872
bin	0.0002426496	878
bin	0.000243504	863
bin	0.0002443584	878
bin	0.0002452128	901
bin	0.0002460672	854
bin	0.0002469216	870
bin	0.000247776	866
bin	0.0002486304	810
bin	0.0002494848	848
bin	0.0002503392	826
bin	0.0002511936	837
bin	0.000252048	838
bin	0.0002529024	869
bin	0.0002537568	858
bin	0.0002546112	837
bin	0.0002554656	821
bin	0.00025632	839
bin	0.0002571744	790
bin	0.0002580288	837
bin	0.0002588832	838
bin	0.0002597376	809
bin	0.000260592	835
bin	0.0002614464	864
bin	0.0002623008	808
bin	0.0002631552	840
bin	0.0002640096	852
bin	0.000264864	866
bin	0.0002657184	873
bin	0.0002665728	866
bin	0.0002674272	826
bin	0.0002682816	820
bin	0.000269136	813
bin	0.0002699904	807
bin	0.0002708448	822
bin	0.0002716992	807
bin	0.0002725536	844
bin	0.000273408	814
bin	0.0002742624	783
bin	0.0002751168	792
bin	0.0002759712	838
bin	0.0002768256	805
bin	0.00027768	798
bin	0.0002785344	808
bin	0.0002793888	813
bin	0.0002802432	819
bin	0.0002810976	825
bin	0.000281952	838
bin	0.0002828064	782
bin	0.0002836608	805
bin	0.0002845152	848
bin	0.0002853696	793
bin	0.000286224	798
bin	0.0002870784	787
bin	0.0002879328	789
bin	0.0002887872	793
bin	0.0002896416	781
bin	0.000290496	780
bin	0.0002913504	831
bin	0.0002922048	833
bin	0.0002930592	824
bin	0.0002939136	866
bin	0.000294768	868
bin	0.0002956224	838
bin	0.0002964768	847
bin	0.0002973312	867
bin	0.0002981856	854
bin	0.00029904	854
bin	0.0002998944	821
bin	0.0003007488	864
bin	0.0003016032	852
bin	0.0003024576	852
bin	0.000303312	877
bin	0.0003041664	884
bin	0.0003050208	839
bin	0.0003058752	826
bin	0.0003067296	849
bin	0.000307584	875
bin	0.0003084384	866
bin	0.0003092928	842
bin	0.0003101472	868
bin	0.0003110016	857
bin	0.000311856	771
bin	0.0003127104	819
bin	0.0003135648	821
bin	0.0003144192	822
bin	0.0003152736	837
bin	0.000316128	857
bin	0.0003169824	859
bin	0.0003178368	847
bin	0.0003186912	797
bin	0.0003195456	799
bin	0.0003204	808
bin	0.0003212544	820
bin	0.0003221088	815
bin	0.0003229632	826
bin	0.0003238176	818
bin	0.000324672	812
bin	0.0003255264	800
bin	0.0003263808	788
bin	0.0003272352	778
bin	0.0003280896	727
bin	0.000328944	750
bin	0.0003297984	735
bin	0.0003306528	763
bin	0.0003315072	799
bin	0.0003323616	772
bin	0.000333216	735
bin	0.0003340704	697
bin	0.0003349248	709
bin	0.0003357792	688
bin	0.0003366336	712
bin	0.000337488	714
bin	0.0003383424	705
bin	0.0003391968	715
bin	0.0003400512	696
bin	0.0003409056	701
bin	0.00034176	720
bin	0.0003426144	728
bin	0.0003434688	743
bin	0.0003443232	754
bin	0.0003451776	718
bin	0.000346032	746
bin	0.0003468864	704
bin	0.0003477408	733
bin	0.0003485952	694
bin	0.0003494496	700
bin	0.000350304	674
bin	0.0003511584	651
bin	0.0003520128	657
bin	0.0003528672	723
bin	0.0003537216	694
bin	0.000354576	701
bin	0.0003554304	715
bin	0.0003562848	695
bin	0.0003571392	646
bin	0.0003579936	660
bin	0.000358848	684
bin	0.0003597024	690
bin	0.0003605568	672
bin	0.0003614112	682
bin	0.0003622656	687
bin	0.00036312	695
bin	0.0003639744	704
bin	0.0003648288	700
bin	0.0003656832	716
bin	0.0003665376	744
bin	0.000367392	798
bin	0.0003682464	761
bin	0.0003691008	738
bin	0.0003699552	746
bin	0.0003708096	718
bin	0.000371664	700
bin	0.0003725184	675
bin	0.0003733728	703
bin	0.0003742272	697
bin	0.0003750816	679
bin	0.000375936	678
bin	0.0003767904	730
bin	0.0003776448	727
bin	0.0003784992	759
bin	0.0003793536	735
bin	0.000380208	710
bin	0.0003810624	694
bin	0.0003819168	706
bin	0.0003827712	706
bin	0.0003836256	702
bin	0.00038448	687
bin	0.0003853344	720
bin	0.0003861888	713
bin	0.0003870432	691
bin	0.0003878976	663
bin	0.000388752	722
bin	0.0003896064	731
bin	0.0003904608	699
bin	0.0003913152	750
bin	0.0003921696	723
bin	0.000393024	716
bin	0.0003938784	682
bin	0.0003947328	699
bin	0.0003955872	687
bin	0.0003964416	701
bin	0.000397296	689
bin	0.0003981504	683
bin	0.0003990048	703
bin	0.0003998592	670
bin	0.0004007136	677
bin	0.000401568	707
bin	0.0004024224	698
bin	0.0004032768	665
bin	0.0004041312	652
bin	0.0004049856	664
bin	0.00040584	650
bin	0.0004066944	676
bin	0.0004075488	670
bin	0.0004084032	686
bin	0.0004092576	638
bin	0.000410112	654
bin	0.0004109664	618
bin	0.0004118208	657
bin	0.0004126752	672
bin	0.0004135296	688
bin	0.000414384	645
bin	0.0004152384	670
bin	0.0004160928	656
bin	0.0004169472	659
bin	0.0004178016	657
bin	0.000418656	685
bin	0.0004195104	648
bin	0.0004203648	668
bin	0.0004212192	681
bin	0.0004220736	673
bin	0.000422928	667
bin	0.0004237824	620
bin	0.0004246368	639
bin	0.0004254912	635
bin	0.0004263456	605
bin	0.0004272	5045876
