version 2
run Permutation-16-20120710-21:08:32-28076
attr alg 0
attr buf 8
attr configname Permutation
attr datetime 20120710-21:08:32
attr delta 1
attr experiment Permutation
attr ext true
attr inifile altro.ini
attr iterationvars "$buf=8, $ext=true, $ofedge=1, $delta=1, $alg=0"
attr iterationvars2 "$buf=8, $ext=true, $ofedge=1, $delta=1, $alg=0, $repetition=0"
attr measurement "$buf=8, $ext=true, $ofedge=1, $delta=1, $alg=0"
attr network Torus3d_bub
attr ofedge 1
attr processid 28076
attr repetition 0
attr replication #0
attr resultdir altro-results
attr runnumber 16
attr seedset 16

scalar . 	alg 	0
scalar . 	buf 	8
scalar . 	delta 	1
scalar . 	ofedge 	1
scalar Torus3d_bub.timer 	#endTime 	0.002971243333333
scalar Torus3d_bub.timer 	#totalHops 	76339200
scalar Torus3d_bub.timer 	#totalPacks 	6291456
scalar Torus3d_bub.timer 	#totalDerouted 	0
scalar Torus3d_bub.timer 	#totalOutFlanked 	0
scalar Torus3d_bub.timer 	#totalCQRed 	0
scalar Torus3d_bub.timer 	#LB 	0.000786432
scalar Torus3d_bub.timer 	#ratio 	0.26468111553752
statistic Torus3d_bub.timer 	"Hop Times"
field count 6291456
field mean 7.0906778939384e-05
field stddev 7.501193298174e-05
field sum 446.10687979886
field sqrsum 0.06703269855276
field min 4.04962962e-07
field max 0.002043325333141
bin	-INF	0
bin	0	0
bin	7.12e-08	0
bin	1.424e-07	0
bin	2.136e-07	0
bin	2.848e-07	0
bin	3.56e-07	29
bin	4.272e-07	976
bin	4.984e-07	3160
bin	5.696e-07	4871
bin	6.408e-07	6842
bin	7.12e-07	8635
bin	7.832e-07	10769
bin	8.544e-07	12369
bin	9.256e-07	13931
bin	9.968e-07	15931
bin	1.068e-06	17463
bin	1.1392e-06	18888
bin	1.2104e-06	20602
bin	1.2816e-06	22580
bin	1.3528e-06	24524
bin	1.424e-06	26420
bin	1.4952e-06	28899
bin	1.5664e-06	30311
bin	1.6376e-06	31578
bin	1.7088e-06	32500
bin	1.78e-06	32930
bin	1.8512e-06	33161
bin	1.9224e-06	32792
bin	1.9936e-06	32106
bin	2.0648e-06	31403
bin	2.136e-06	30368
bin	2.2072e-06	29129
bin	2.2784e-06	28031
bin	2.3496e-06	26623
bin	2.4208e-06	25197
bin	2.492e-06	23912
bin	2.5632e-06	22558
bin	2.6344e-06	21420
bin	2.7056e-06	20343
bin	2.7768e-06	19399
bin	2.848e-06	18318
bin	2.9192e-06	17703
bin	2.9904e-06	16790
bin	3.0616e-06	15912
bin	3.1328e-06	15348
bin	3.204e-06	14622
bin	3.2752e-06	13825
bin	3.3464e-06	13342
bin	3.4176e-06	12997
bin	3.4888e-06	12674
bin	3.56e-06	12047
bin	3.6312e-06	11519
bin	3.7024e-06	11272
bin	3.7736e-06	10805
bin	3.8448e-06	10657
bin	3.916e-06	10325
bin	3.9872e-06	10126
bin	4.0584e-06	9801
bin	4.1296e-06	9443
bin	4.2008e-06	9170
bin	4.272e-06	9039
bin	4.3432e-06	8917
bin	4.4144e-06	8465
bin	4.4856e-06	8492
bin	4.5568e-06	8292
bin	4.628e-06	8017
bin	4.6992e-06	7994
bin	4.7704e-06	7787
bin	4.8416e-06	7624
bin	4.9128e-06	7531
bin	4.984e-06	7372
bin	5.0552e-06	7290
bin	5.1264e-06	7102
bin	5.1976e-06	6964
bin	5.2688e-06	6763
bin	5.34e-06	6680
bin	5.4112e-06	6516
bin	5.4824e-06	6568
bin	5.5536e-06	6380
bin	5.6248e-06	6316
bin	5.696e-06	6238
bin	5.7672e-06	6232
bin	5.8384e-06	6158
bin	5.9096e-06	6011
bin	5.9808e-06	5872
bin	6.052e-06	5776
bin	6.1232e-06	5741
bin	6.1944e-06	5766
bin	6.2656e-06	5687
bin	6.3368e-06	5603
bin	6.408e-06	5588
bin	6.4792e-06	5614
bin	6.5504e-06	5377
bin	6.6216e-06	5412
bin	6.6928e-06	5407
bin	6.764e-06	5316
bin	6.8352e-06	5179
bin	6.9064e-06	5174
bin	6.9776e-06	5083
bin	7.0488e-06	4947
bin	7.12e-06	4888
bin	7.1912e-06	4881
bin	7.2624e-06	4736
bin	7.3336e-06	4816
bin	7.4048e-06	4829
bin	7.476e-06	4759
bin	7.5472e-06	4792
bin	7.6184e-06	4779
bin	7.6896e-06	4746
bin	7.7608e-06	4657
bin	7.832e-06	4590
bin	7.9032e-06	4516
bin	7.9744e-06	4416
bin	8.0456e-06	4406
bin	8.1168e-06	4401
bin	8.188e-06	4407
bin	8.2592e-06	4390
bin	8.3304e-06	4299
bin	8.4016e-06	4246
bin	8.4728e-06	4398
bin	8.544e-06	4326
bin	8.6152e-06	4252
bin	8.6864e-06	4152
bin	8.7576e-06	4207
bin	8.8288e-06	4163
bin	8.9e-06	4086
bin	8.9712e-06	4058
bin	9.0424e-06	4015
bin	9.1136e-06	4171
bin	9.1848e-06	4080
bin	9.256e-06	4095
bin	9.3272e-06	3958
bin	9.3984e-06	3969
bin	9.4696e-06	3923
bin	9.5408e-06	3871
bin	9.612e-06	3856
bin	9.6832e-06	3879
bin	9.7544e-06	3878
bin	9.8256e-06	3848
bin	9.8968e-06	3844
bin	9.968e-06	3751
bin	1.00392e-05	3804
bin	1.01104e-05	3759
bin	1.01816e-05	3796
bin	1.02528e-05	3826
bin	1.0324e-05	3711
bin	1.03952e-05	3817
bin	1.04664e-05	3729
bin	1.05376e-05	3692
bin	1.06088e-05	3670
bin	1.068e-05	3677
bin	1.07512e-05	3671
bin	1.08224e-05	3524
bin	1.08936e-05	3611
bin	1.09648e-05	3602
bin	1.1036e-05	3464
bin	1.11072e-05	3551
bin	1.11784e-05	3460
bin	1.12496e-05	3474
bin	1.13208e-05	3359
bin	1.1392e-05	3425
bin	1.14632e-05	3449
bin	1.15344e-05	3341
bin	1.16056e-05	3396
bin	1.16768e-05	3308
bin	1.1748e-05	3360
bin	1.18192e-05	3327
bin	1.18904e-05	3298
bin	1.19616e-05	3320
bin	1.20328e-05	3267
bin	1.2104e-05	3241
bin	1.21752e-05	3281
bin	1.22464e-05	3136
bin	1.23176e-05	3148
bin	1.23888e-05	3176
bin	1.246e-05	3256
bin	1.25312e-05	3143
bin	1.26024e-05	3225
bin	1.26736e-05	3130
bin	1.27448e-05	3136
bin	1.2816e-05	3055
bin	1.28872e-05	2992
bin	1.29584e-05	3055
bin	1.30296e-05	3099
bin	1.31008e-05	3048
bin	1.3172e-05	3097
bin	1.32432e-05	3062
bin	1.33144e-05	3024
bin	1.33856e-05	2995
bin	1.34568e-05	3048
bin	1.3528e-05	3113
bin	1.35992e-05	2911
bin	1.36704e-05	3057
bin	1.37416e-05	3083
bin	1.38128e-05	3106
bin	1.3884e-05	3004
bin	1.39552e-05	3019
bin	1.40264e-05	2992
bin	1.40976e-05	2934
bin	1.41688e-05	2900
bin	1.424e-05	2902
bin	1.43112e-05	2808
bin	1.43824e-05	2925
bin	1.44536e-05	2881
bin	1.45248e-05	2903
bin	1.4596e-05	2848
bin	1.46672e-05	2923
bin	1.47384e-05	3003
bin	1.48096e-05	2972
bin	1.48808e-05	2987
bin	1.4952e-05	2959
bin	1.50232e-05	2924
bin	1.50944e-05	2939
bin	1.51656e-05	2909
bin	1.52368e-05	2818
bin	1.5308e-05	2802
bin	1.53792e-05	2866
bin	1.54504e-05	2855
bin	1.55216e-05	2890
bin	1.55928e-05	2821
bin	1.5664e-05	2863
bin	1.57352e-05	2822
bin	1.58064e-05	2813
bin	1.58776e-05	2801
bin	1.59488e-05	2860
bin	1.602e-05	2816
bin	1.60912e-05	2880
bin	1.61624e-05	2893
bin	1.62336e-05	2934
bin	1.63048e-05	2924
bin	1.6376e-05	2831
bin	1.64472e-05	2875
bin	1.65184e-05	2851
bin	1.65896e-05	2852
bin	1.66608e-05	2743
bin	1.6732e-05	2751
bin	1.68032e-05	2828
bin	1.68744e-05	2838
bin	1.69456e-05	2818
bin	1.70168e-05	2964
bin	1.7088e-05	2878
bin	1.71592e-05	2779
bin	1.72304e-05	2941
bin	1.73016e-05	2875
bin	1.73728e-05	2907
bin	1.7444e-05	2847
bin	1.75152e-05	2912
bin	1.75864e-05	2948
bin	1.76576e-05	2924
bin	1.77288e-05	2912
bin	1.78e-05	2911
bin	1.78712e-05	2861
bin	1.79424e-05	2857
bin	1.80136e-05	2835
bin	1.80848e-05	2769
bin	1.8156e-05	2671
bin	1.82272e-05	2768
bin	1.82984e-05	2740
bin	1.83696e-05	2744
bin	1.84408e-05	2702
bin	1.8512e-05	2711
bin	1.85832e-05	2740
bin	1.86544e-05	2725
bin	1.87256e-05	2811
bin	1.87968e-05	2733
bin	1.8868e-05	2652
bin	1.89392e-05	2620
bin	1.90104e-05	2640
bin	1.90816e-05	2657
bin	1.91528e-05	2694
bin	1.9224e-05	2621
bin	1.92952e-05	2690
bin	1.93664e-05	2657
bin	1.94376e-05	2741
bin	1.95088e-05	2730
bin	1.958e-05	2729
bin	1.96512e-05	2715
bin	1.97224e-05	2781
bin	1.97936e-05	2680
bin	1.98648e-05	2644
bin	1.9936e-05	2665
bin	2.00072e-05	2573
bin	2.00784e-05	2684
bin	2.01496e-05	2643
bin	2.02208e-05	2545
bin	2.0292e-05	2490
bin	2.03632e-05	2580
bin	2.04344e-05	2534
bin	2.05056e-05	2469
bin	2.05768e-05	2490
bin	2.0648e-05	2557
bin	2.07192e-05	2593
bin	2.07904e-05	2503
bin	2.08616e-05	2495
bin	2.09328e-05	2532
bin	2.1004e-05	2530
bin	2.10752e-05	2520
bin	2.11464e-05	2472
bin	2.12176e-05	2459
bin	2.12888e-05	2532
bin	2.136e-05	2429
bin	2.14312e-05	2435
bin	2.15024e-05	2403
bin	2.15736e-05	2364
bin	2.16448e-05	2345
bin	2.1716e-05	2451
bin	2.17872e-05	2389
bin	2.18584e-05	2410
bin	2.19296e-05	2427
bin	2.20008e-05	2472
bin	2.2072e-05	2400
bin	2.21432e-05	2366
bin	2.22144e-05	2318
bin	2.22856e-05	2249
bin	2.23568e-05	2453
bin	2.2428e-05	2397
bin	2.24992e-05	2350
bin	2.25704e-05	2373
bin	2.26416e-05	2453
bin	2.27128e-05	2400
bin	2.2784e-05	2387
bin	2.28552e-05	2438
bin	2.29264e-05	2414
bin	2.29976e-05	2393
bin	2.30688e-05	2355
bin	2.314e-05	2388
bin	2.32112e-05	2406
bin	2.32824e-05	2367
bin	2.33536e-05	2362
bin	2.34248e-05	2443
bin	2.3496e-05	2400
bin	2.35672e-05	2329
bin	2.36384e-05	2352
bin	2.37096e-05	2403
bin	2.37808e-05	2412
bin	2.3852e-05	2326
bin	2.39232e-05	2236
bin	2.39944e-05	2301
bin	2.40656e-05	2329
bin	2.41368e-05	2354
bin	2.4208e-05	2280
bin	2.42792e-05	2294
bin	2.43504e-05	2305
bin	2.44216e-05	2284
bin	2.44928e-05	2308
bin	2.4564e-05	2344
bin	2.46352e-05	2325
bin	2.47064e-05	2450
bin	2.47776e-05	2405
bin	2.48488e-05	2366
bin	2.492e-05	2428
bin	2.49912e-05	2524
bin	2.50624e-05	2467
bin	2.51336e-05	2400
bin	2.52048e-05	2413
bin	2.5276e-05	2432
bin	2.53472e-05	2272
bin	2.54184e-05	2340
bin	2.54896e-05	2302
bin	2.55608e-05	2229
bin	2.5632e-05	2224
bin	2.57032e-05	2247
bin	2.57744e-05	2243
bin	2.58456e-05	2296
bin	2.59168e-05	2259
bin	2.5988e-05	2257
bin	2.60592e-05	2263
bin	2.61304e-05	2338
bin	2.62016e-05	2305
bin	2.62728e-05	2333
bin	2.6344e-05	2322
bin	2.64152e-05	2258
bin	2.64864e-05	2349
bin	2.65576e-05	2260
bin	2.66288e-05	2231
bin	2.67e-05	2277
bin	2.67712e-05	2240
bin	2.68424e-05	2294
bin	2.69136e-05	2345
bin	2.69848e-05	2332
bin	2.7056e-05	2278
bin	2.71272e-05	2278
bin	2.71984e-05	2401
bin	2.72696e-05	2216
bin	2.73408e-05	2298
bin	2.7412e-05	2275
bin	2.74832e-05	2244
bin	2.75544e-05	2309
bin	2.76256e-05	2312
bin	2.76968e-05	2316
bin	2.7768e-05	2287
bin	2.78392e-05	2337
bin	2.79104e-05	2315
bin	2.79816e-05	2285
bin	2.80528e-05	2350
bin	2.8124e-05	2295
bin	2.81952e-05	2318
bin	2.82664e-05	2256
bin	2.83376e-05	2230
bin	2.84088e-05	2243
bin	2.848e-05	2226
bin	2.85512e-05	2169
bin	2.86224e-05	2261
bin	2.86936e-05	2212
bin	2.87648e-05	2163
bin	2.8836e-05	2254
bin	2.89072e-05	2141
bin	2.89784e-05	2180
bin	2.90496e-05	2212
bin	2.91208e-05	2135
bin	2.9192e-05	2225
bin	2.92632e-05	2188
bin	2.93344e-05	2170
bin	2.94056e-05	2202
bin	2.94768e-05	2237
bin	2.9548e-05	2217
bin	2.96192e-05	2155
bin	2.96904e-05	2253
bin	2.97616e-05	2261
bin	2.98328e-05	2228
bin	2.9904e-05	2215
bin	2.99752e-05	2195
bin	3.00464e-05	2212
bin	3.01176e-05	2141
bin	3.01888e-05	2171
bin	3.026e-05	2189
bin	3.03312e-05	2216
bin	3.04024e-05	2167
bin	3.04736e-05	2118
bin	3.05448e-05	2244
bin	3.0616e-05	2229
bin	3.06872e-05	2238
bin	3.07584e-05	2199
bin	3.08296e-05	2307
bin	3.09008e-05	2292
bin	3.0972e-05	2179
bin	3.10432e-05	2223
bin	3.11144e-05	2223
bin	3.11856e-05	2238
bin	3.12568e-05	2201
bin	3.1328e-05	2265
bin	3.13992e-05	2213
bin	3.14704e-05	2187
bin	3.15416e-05	2204
bin	3.16128e-05	2164
bin	3.1684e-05	2212
bin	3.17552e-05	2235
bin	3.18264e-05	2272
bin	3.18976e-05	2262
bin	3.19688e-05	2256
bin	3.204e-05	2278
bin	3.21112e-05	2207
bin	3.21824e-05	2241
bin	3.22536e-05	2283
bin	3.23248e-05	2299
bin	3.2396e-05	2202
bin	3.24672e-05	2219
bin	3.25384e-05	2186
bin	3.26096e-05	2241
bin	3.26808e-05	2277
bin	3.2752e-05	2214
bin	3.28232e-05	2246
bin	3.28944e-05	2234
bin	3.29656e-05	2206
bin	3.30368e-05	2206
bin	3.3108e-05	2226
bin	3.31792e-05	2235
bin	3.32504e-05	2243
bin	3.33216e-05	2215
bin	3.33928e-05	2301
bin	3.3464e-05	2235
bin	3.35352e-05	2208
bin	3.36064e-05	2312
bin	3.36776e-05	2232
bin	3.37488e-05	2243
bin	3.382e-05	2289
bin	3.38912e-05	2331
bin	3.39624e-05	2288
bin	3.40336e-05	2221
bin	3.41048e-05	2302
bin	3.4176e-05	2326
bin	3.42472e-05	2309
bin	3.43184e-05	2283
bin	3.43896e-05	2264
bin	3.44608e-05	2326
bin	3.4532e-05	2355
bin	3.46032e-05	2355
bin	3.46744e-05	2280
bin	3.47456e-05	2355
bin	3.48168e-05	2225
bin	3.4888e-05	2216
bin	3.49592e-05	2217
bin	3.50304e-05	2235
bin	3.51016e-05	2223
bin	3.51728e-05	2231
bin	3.5244e-05	2285
bin	3.53152e-05	2186
bin	3.53864e-05	2153
bin	3.54576e-05	2265
bin	3.55288e-05	2291
bin	3.56e-05	3926503
statistic Torus3d_bub.timer 	"Life Times"
field count 6291456
field mean 0.00076621448254238
field stddev 0.00059495083133269
field sum 4820.6047034781
field sqrsum 5.920581392477
field min 5.62666513e-07
field max 0.002965444333333
bin	-INF	0
bin	0	20
bin	8.544e-07	543
bin	1.7088e-06	1934
bin	2.5632e-06	3369
bin	3.4176e-06	5064
bin	4.272e-06	6715
bin	5.1264e-06	8643
bin	5.9808e-06	10407
bin	6.8352e-06	12119
bin	7.6896e-06	13938
bin	8.544e-06	15578
bin	9.3984e-06	17223
bin	1.02528e-05	18943
bin	1.11072e-05	20255
bin	1.19616e-05	21519
bin	1.2816e-05	22769
bin	1.36704e-05	23918
bin	1.45248e-05	24734
bin	1.53792e-05	25558
bin	1.62336e-05	26480
bin	1.7088e-05	26925
bin	1.79424e-05	27566
bin	1.87968e-05	28226
bin	1.96512e-05	28808
bin	2.05056e-05	29604
bin	2.136e-05	30222
bin	2.22144e-05	30703
bin	2.30688e-05	30715
bin	2.39232e-05	30772
bin	2.47776e-05	30814
bin	2.5632e-05	29967
bin	2.64864e-05	28595
bin	2.73408e-05	27188
bin	2.81952e-05	25669
bin	2.90496e-05	24429
bin	2.9904e-05	23111
bin	3.07584e-05	21531
bin	3.16128e-05	20319
bin	3.24672e-05	18909
bin	3.33216e-05	17724
bin	3.4176e-05	16415
bin	3.50304e-05	15316
bin	3.58848e-05	14284
bin	3.67392e-05	13506
bin	3.75936e-05	12899
bin	3.8448e-05	12258
bin	3.93024e-05	11697
bin	4.01568e-05	11218
bin	4.10112e-05	10654
bin	4.18656e-05	10747
bin	4.272e-05	10220
bin	4.35744e-05	10171
bin	4.44288e-05	9933
bin	4.52832e-05	9660
bin	4.61376e-05	9483
bin	4.6992e-05	9491
bin	4.78464e-05	9503
bin	4.87008e-05	9404
bin	4.95552e-05	9391
bin	5.04096e-05	9151
bin	5.1264e-05	8912
bin	5.21184e-05	8893
bin	5.29728e-05	8494
bin	5.38272e-05	8290
bin	5.46816e-05	8043
bin	5.5536e-05	7935
bin	5.63904e-05	7834
bin	5.72448e-05	7513
bin	5.80992e-05	7351
bin	5.89536e-05	7312
bin	5.9808e-05	6987
bin	6.06624e-05	6668
bin	6.15168e-05	6554
bin	6.23712e-05	6260
bin	6.32256e-05	6246
bin	6.408e-05	6059
bin	6.49344e-05	6017
bin	6.57888e-05	5954
bin	6.66432e-05	5851
bin	6.74976e-05	5764
bin	6.8352e-05	5792
bin	6.92064e-05	5729
bin	7.00608e-05	5668
bin	7.09152e-05	5833
bin	7.17696e-05	5803
bin	7.2624e-05	5815
bin	7.34784e-05	5925
bin	7.43328e-05	5860
bin	7.51872e-05	5853
bin	7.60416e-05	5734
bin	7.6896e-05	5696
bin	7.77504e-05	5662
bin	7.86048e-05	5551
bin	7.94592e-05	5439
bin	8.03136e-05	5340
bin	8.1168e-05	5251
bin	8.20224e-05	5395
bin	8.28768e-05	5178
bin	8.37312e-05	4997
bin	8.45856e-05	4973
bin	8.544e-05	4773
bin	8.62944e-05	4776
bin	8.71488e-05	4630
bin	8.80032e-05	4687
bin	8.88576e-05	4681
bin	8.9712e-05	4495
bin	9.05664e-05	4586
bin	9.14208e-05	4554
bin	9.22752e-05	4539
bin	9.31296e-05	4517
bin	9.3984e-05	4452
bin	9.48384e-05	4451
bin	9.56928e-05	4465
bin	9.65472e-05	4527
bin	9.74016e-05	4429
bin	9.8256e-05	4498
bin	9.91104e-05	4402
bin	9.99648e-05	4423
bin	0.0001008192	4441
bin	0.0001016736	4373
bin	0.000102528	4440
bin	0.0001033824	4360
bin	0.0001042368	4486
bin	0.0001050912	4280
bin	0.0001059456	4206
bin	0.0001068	4118
bin	0.0001076544	4058
bin	0.0001085088	3912
bin	0.0001093632	3855
bin	0.0001102176	3715
bin	0.000111072	3616
bin	0.0001119264	3589
bin	0.0001127808	3544
bin	0.0001136352	3502
bin	0.0001144896	3613
bin	0.000115344	3581
bin	0.0001161984	3633
bin	0.0001170528	3679
bin	0.0001179072	3699
bin	0.0001187616	3688
bin	0.000119616	3695
bin	0.0001204704	3734
bin	0.0001213248	3756
bin	0.0001221792	3696
bin	0.0001230336	3755
bin	0.000123888	3731
bin	0.0001247424	3730
bin	0.0001255968	3762
bin	0.0001264512	3717
bin	0.0001273056	3653
bin	0.00012816	3761
bin	0.0001290144	3646
bin	0.0001298688	3607
bin	0.0001307232	3637
bin	0.0001315776	3493
bin	0.000132432	3466
bin	0.0001332864	3475
bin	0.0001341408	3468
bin	0.0001349952	3504
bin	0.0001358496	3435
bin	0.000136704	3444
bin	0.0001375584	3425
bin	0.0001384128	3412
bin	0.0001392672	3321
bin	0.0001401216	3260
bin	0.000140976	3190
bin	0.0001418304	3295
bin	0.0001426848	3257
bin	0.0001435392	3289
bin	0.0001443936	3270
bin	0.000145248	3367
bin	0.0001461024	3418
bin	0.0001469568	3500
bin	0.0001478112	3480
bin	0.0001486656	3451
bin	0.00014952	3412
bin	0.0001503744	3493
bin	0.0001512288	3437
bin	0.0001520832	3374
bin	0.0001529376	3424
bin	0.000153792	3422
bin	0.0001546464	3244
bin	0.0001555008	3214
bin	0.0001563552	3155
bin	0.0001572096	3117
bin	0.000158064	3152
bin	0.0001589184	3177
bin	0.0001597728	3048
bin	0.0001606272	3106
bin	0.0001614816	3059
bin	0.000162336	3067
bin	0.0001631904	2981
bin	0.0001640448	3083
bin	0.0001648992	2973
bin	0.0001657536	2958
bin	0.000166608	2985
bin	0.0001674624	2962
bin	0.0001683168	2969
bin	0.0001691712	2954
bin	0.0001700256	2959
bin	0.00017088	2985
bin	0.0001717344	3025
bin	0.0001725888	3044
bin	0.0001734432	3018
bin	0.0001742976	3131
bin	0.000175152	3112
bin	0.0001760064	3103
bin	0.0001768608	3151
bin	0.0001777152	3079
bin	0.0001785696	3052
bin	0.000179424	3063
bin	0.0001802784	3029
bin	0.0001811328	2888
bin	0.0001819872	2859
bin	0.0001828416	2859
bin	0.000183696	2784
bin	0.0001845504	2782
bin	0.0001854048	2794
bin	0.0001862592	2732
bin	0.0001871136	2693
bin	0.000187968	2755
bin	0.0001888224	2794
bin	0.0001896768	2665
bin	0.0001905312	2758
bin	0.0001913856	2890
bin	0.00019224	2932
bin	0.0001930944	2913
bin	0.0001939488	2927
bin	0.0001948032	2964
bin	0.0001956576	3021
bin	0.000196512	2886
bin	0.0001973664	2945
bin	0.0001982208	2953
bin	0.0001990752	2914
bin	0.0001999296	2893
bin	0.000200784	2899
bin	0.0002016384	2933
bin	0.0002024928	2877
bin	0.0002033472	2842
bin	0.0002042016	2900
bin	0.000205056	2892
bin	0.0002059104	2774
bin	0.0002067648	2715
bin	0.0002076192	2695
bin	0.0002084736	2631
bin	0.000209328	2631
bin	0.0002101824	2665
bin	0.0002110368	2713
bin	0.0002118912	2709
bin	0.0002127456	2599
bin	0.0002136	2601
bin	0.0002144544	2567
bin	0.0002153088	2616
bin	0.0002161632	2627
bin	0.0002170176	2609
bin	0.000217872	2571
bin	0.0002187264	2638
bin	0.0002195808	2517
bin	0.0002204352	2526
bin	0.0002212896	2596
bin	0.000222144	2633
bin	0.0002229984	2609
bin	0.0002238528	2699
bin	0.0002247072	2721
bin	0.0002255616	2572
bin	0.000226416	2606
bin	0.0002272704	2547
bin	0.0002281248	2601
bin	0.0002289792	2576
bin	0.0002298336	2567
bin	0.000230688	2482
bin	0.0002315424	2525
bin	0.0002323968	2484
bin	0.0002332512	2437
bin	0.0002341056	2421
bin	0.00023496	2406
bin	0.0002358144	2372
bin	0.0002366688	2344
bin	0.0002375232	2453
bin	0.0002383776	2388
bin	0.000239232	2351
bin	0.0002400864	2316
bin	0.0002409408	2277
bin	0.0002417952	2335
bin	0.0002426496	2307
bin	0.000243504	2354
bin	0.0002443584	2336
bin	0.0002452128	2307
bin	0.0002460672	2287
bin	0.0002469216	2399
bin	0.000247776	2348
bin	0.0002486304	2376
bin	0.0002494848	2353
bin	0.0002503392	2335
bin	0.0002511936	2367
bin	0.000252048	2427
bin	0.0002529024	2282
bin	0.0002537568	2240
bin	0.0002546112	2226
bin	0.0002554656	2227
bin	0.00025632	2200
bin	0.0002571744	2187
bin	0.0002580288	2182
bin	0.0002588832	2174
bin	0.0002597376	2141
bin	0.000260592	2114
bin	0.0002614464	2116
bin	0.0002623008	2076
bin	0.0002631552	2110
bin	0.0002640096	2054
bin	0.000264864	2111
bin	0.0002657184	2066
bin	0.0002665728	2155
bin	0.0002674272	2188
bin	0.0002682816	2180
bin	0.000269136	2241
bin	0.0002699904	2251
bin	0.0002708448	2318
bin	0.0002716992	2304
bin	0.0002725536	2299
bin	0.000273408	2359
bin	0.0002742624	2316
bin	0.0002751168	2283
bin	0.0002759712	2303
bin	0.0002768256	2277
bin	0.00027768	2217
bin	0.0002785344	2285
bin	0.0002793888	2280
bin	0.0002802432	2242
bin	0.0002810976	2153
bin	0.000281952	2165
bin	0.0002828064	2131
bin	0.0002836608	2083
bin	0.0002845152	2153
bin	0.0002853696	2152
bin	0.000286224	2107
bin	0.0002870784	2067
bin	0.0002879328	2075
bin	0.0002887872	2113
bin	0.0002896416	2175
bin	0.000290496	2143
bin	0.0002913504	2242
bin	0.0002922048	2161
bin	0.0002930592	2282
bin	0.0002939136	2241
bin	0.000294768	2270
bin	0.0002956224	2242
bin	0.0002964768	2209
bin	0.0002973312	2240
bin	0.0002981856	2241
bin	0.00029904	2251
bin	0.0002998944	2296
bin	0.0003007488	2194
bin	0.0003016032	2258
bin	0.0003024576	2230
bin	0.000303312	2202
bin	0.0003041664	2259
bin	0.0003050208	2216
bin	0.0003058752	2233
bin	0.0003067296	2227
bin	0.000307584	2232
bin	0.0003084384	2149
bin	0.0003092928	2120
bin	0.0003101472	2145
bin	0.0003110016	2136
bin	0.000311856	2115
bin	0.0003127104	2075
bin	0.0003135648	2170
bin	0.0003144192	2209
bin	0.0003152736	2241
bin	0.000316128	2272
bin	0.0003169824	2217
bin	0.0003178368	2196
bin	0.0003186912	2279
bin	0.0003195456	2230
bin	0.0003204	2196
bin	0.0003212544	2177
bin	0.0003221088	2165
bin	0.0003229632	2239
bin	0.0003238176	2244
bin	0.000324672	2303
bin	0.0003255264	2316
bin	0.0003263808	2308
bin	0.0003272352	2268
bin	0.0003280896	2176
bin	0.000328944	2230
bin	0.0003297984	2139
bin	0.0003306528	2166
bin	0.0003315072	2196
bin	0.0003323616	2152
bin	0.000333216	2079
bin	0.0003340704	2085
bin	0.0003349248	2114
bin	0.0003357792	2085
bin	0.0003366336	2170
bin	0.000337488	2149
bin	0.0003383424	2187
bin	0.0003391968	2103
bin	0.0003400512	2090
bin	0.0003409056	2179
bin	0.00034176	2074
bin	0.0003426144	2042
bin	0.0003434688	2173
bin	0.0003443232	2156
bin	0.0003451776	2144
bin	0.000346032	2134
bin	0.0003468864	2141
bin	0.0003477408	2163
bin	0.0003485952	2124
bin	0.0003494496	2088
bin	0.000350304	2178
bin	0.0003511584	2122
bin	0.0003520128	2188
bin	0.0003528672	2101
bin	0.0003537216	2160
bin	0.000354576	2181
bin	0.0003554304	2081
bin	0.0003562848	2194
bin	0.0003571392	2078
bin	0.0003579936	2088
bin	0.000358848	2144
bin	0.0003597024	2071
bin	0.0003605568	2123
bin	0.0003614112	2103
bin	0.0003622656	2057
bin	0.00036312	2046
bin	0.0003639744	2093
bin	0.0003648288	2130
bin	0.0003656832	2082
bin	0.0003665376	2112
bin	0.000367392	2140
bin	0.0003682464	2158
bin	0.0003691008	2108
bin	0.0003699552	2159
bin	0.0003708096	2071
bin	0.000371664	2044
bin	0.0003725184	2141
bin	0.0003733728	2168
bin	0.0003742272	2110
bin	0.0003750816	2198
bin	0.000375936	2129
bin	0.0003767904	2109
bin	0.0003776448	2123
bin	0.0003784992	2148
bin	0.0003793536	2141
bin	0.000380208	2244
bin	0.0003810624	2184
bin	0.0003819168	2118
bin	0.0003827712	2087
bin	0.0003836256	2018
bin	0.00038448	2144
bin	0.0003853344	2083
bin	0.0003861888	2032
bin	0.0003870432	2101
bin	0.0003878976	2044
bin	0.000388752	2086
bin	0.0003896064	2068
bin	0.0003904608	2083
bin	0.0003913152	2023
bin	0.0003921696	2130
bin	0.000393024	2155
bin	0.0003938784	2240
bin	0.0003947328	2175
bin	0.0003955872	2181
bin	0.0003964416	2118
bin	0.000397296	2150
bin	0.0003981504	2169
bin	0.0003990048	2171
bin	0.0003998592	2189
bin	0.0004007136	2153
bin	0.000401568	2171
bin	0.0004024224	2116
bin	0.0004032768	2142
bin	0.0004041312	2093
bin	0.0004049856	2011
bin	0.00040584	2013
bin	0.0004066944	1947
bin	0.0004075488	1974
bin	0.0004084032	1983
bin	0.0004092576	2017
bin	0.000410112	2117
bin	0.0004109664	2123
bin	0.0004118208	2115
bin	0.0004126752	2109
bin	0.0004135296	2090
bin	0.000414384	2126
bin	0.0004152384	2128
bin	0.0004160928	2194
bin	0.0004169472	2196
bin	0.0004178016	2073
bin	0.000418656	2070
bin	0.0004195104	2053
bin	0.0004203648	2160
bin	0.0004212192	2057
bin	0.0004220736	2005
bin	0.000422928	2001
bin	0.0004237824	2092
bin	0.0004246368	2017
bin	0.0004254912	1970
bin	0.0004263456	1936
bin	0.0004272	3933266
