version 2
run Permutation-59-20120711-00:34:33-28162
attr alg 3
attr buf 8
attr configname Permutation
attr datetime 20120711-00:34:33
attr delta 1
attr experiment Permutation
attr ext false
attr inifile altro.ini
attr iterationvars "$buf=8, $ext=false, $ofedge=1, $delta=1, $alg=3"
attr iterationvars2 "$buf=8, $ext=false, $ofedge=1, $delta=1, $alg=3, $repetition=0"
attr measurement "$buf=8, $ext=false, $ofedge=1, $delta=1, $alg=3"
attr network Torus3d_bub
attr ofedge 1
attr processid 28162
attr repetition 0
attr replication #0
attr resultdir altro-results
attr runnumber 59
attr seedset 59

scalar . 	alg 	3
scalar . 	buf 	8
scalar . 	delta 	1
scalar . 	ofedge 	1
scalar Torus3d_bub.timer 	#endTime 	0.004002724327527
scalar Torus3d_bub.timer 	#totalHops 	84703405
scalar Torus3d_bub.timer 	#totalPacks 	6291456
scalar Torus3d_bub.timer 	#totalDerouted 	2297618
scalar Torus3d_bub.timer 	#totalOutFlanked 	1799205
scalar Torus3d_bub.timer 	#totalCQRed 	498413
scalar Torus3d_bub.timer 	#LB 	0.000786432
scalar Torus3d_bub.timer 	#ratio 	0.19647418499237
statistic Torus3d_bub.timer 	"Hop Times"
field count 6291456
field mean 0.00010944436405447
field stddev 9.9326450319555e-05
field sum 688.5644008967
field sqrsum 0.13742937570491
field min 3.77125e-07
field max 0.002507441
bin	-INF	0
bin	0	0
bin	7.12e-08	0
bin	1.424e-07	0
bin	2.136e-07	0
bin	2.848e-07	0
bin	3.56e-07	180
bin	4.272e-07	931
bin	4.984e-07	2164
bin	5.696e-07	3171
bin	6.408e-07	4450
bin	7.12e-07	5663
bin	7.832e-07	7195
bin	8.544e-07	8733
bin	9.256e-07	10417
bin	9.968e-07	12167
bin	1.068e-06	14294
bin	1.1392e-06	16225
bin	1.2104e-06	18730
bin	1.2816e-06	21536
bin	1.3528e-06	24261
bin	1.424e-06	27205
bin	1.4952e-06	30073
bin	1.5664e-06	33212
bin	1.6376e-06	35192
bin	1.7088e-06	36825
bin	1.78e-06	37936
bin	1.8512e-06	38148
bin	1.9224e-06	38145
bin	1.9936e-06	37062
bin	2.0648e-06	35565
bin	2.136e-06	33961
bin	2.2072e-06	32425
bin	2.2784e-06	30694
bin	2.3496e-06	28377
bin	2.4208e-06	26636
bin	2.492e-06	24910
bin	2.5632e-06	23084
bin	2.6344e-06	21563
bin	2.7056e-06	19970
bin	2.7768e-06	18406
bin	2.848e-06	17560
bin	2.9192e-06	16103
bin	2.9904e-06	14935
bin	3.0616e-06	14076
bin	3.1328e-06	13142
bin	3.204e-06	12229
bin	3.2752e-06	11497
bin	3.3464e-06	11004
bin	3.4176e-06	10471
bin	3.4888e-06	9750
bin	3.56e-06	9204
bin	3.6312e-06	8829
bin	3.7024e-06	8255
bin	3.7736e-06	8030
bin	3.8448e-06	7691
bin	3.916e-06	7486
bin	3.9872e-06	7089
bin	4.0584e-06	6847
bin	4.1296e-06	6649
bin	4.2008e-06	6287
bin	4.272e-06	6067
bin	4.3432e-06	5886
bin	4.4144e-06	5533
bin	4.4856e-06	5439
bin	4.5568e-06	5372
bin	4.628e-06	5193
bin	4.6992e-06	5093
bin	4.7704e-06	4891
bin	4.8416e-06	4762
bin	4.9128e-06	4708
bin	4.984e-06	4624
bin	5.0552e-06	4453
bin	5.1264e-06	4413
bin	5.1976e-06	4350
bin	5.2688e-06	4211
bin	5.34e-06	4188
bin	5.4112e-06	4046
bin	5.4824e-06	3938
bin	5.5536e-06	3898
bin	5.6248e-06	3708
bin	5.696e-06	3673
bin	5.7672e-06	3571
bin	5.8384e-06	3619
bin	5.9096e-06	3617
bin	5.9808e-06	3470
bin	6.052e-06	3473
bin	6.1232e-06	3399
bin	6.1944e-06	3353
bin	6.2656e-06	3284
bin	6.3368e-06	3237
bin	6.408e-06	3227
bin	6.4792e-06	3072
bin	6.5504e-06	3117
bin	6.6216e-06	2988
bin	6.6928e-06	3074
bin	6.764e-06	3037
bin	6.8352e-06	3004
bin	6.9064e-06	2948
bin	6.9776e-06	2873
bin	7.0488e-06	2827
bin	7.12e-06	2809
bin	7.1912e-06	2766
bin	7.2624e-06	2768
bin	7.3336e-06	2715
bin	7.4048e-06	2618
bin	7.476e-06	2544
bin	7.5472e-06	2614
bin	7.6184e-06	2613
bin	7.6896e-06	2611
bin	7.7608e-06	2472
bin	7.832e-06	2472
bin	7.9032e-06	2521
bin	7.9744e-06	2449
bin	8.0456e-06	2440
bin	8.1168e-06	2458
bin	8.188e-06	2433
bin	8.2592e-06	2419
bin	8.3304e-06	2279
bin	8.4016e-06	2408
bin	8.4728e-06	2433
bin	8.544e-06	2319
bin	8.6152e-06	2345
bin	8.6864e-06	2316
bin	8.7576e-06	2265
bin	8.8288e-06	2298
bin	8.9e-06	2205
bin	8.9712e-06	2225
bin	9.0424e-06	2172
bin	9.1136e-06	2157
bin	9.1848e-06	2138
bin	9.256e-06	2126
bin	9.3272e-06	2132
bin	9.3984e-06	2159
bin	9.4696e-06	2156
bin	9.5408e-06	2156
bin	9.612e-06	2056
bin	9.6832e-06	1973
bin	9.7544e-06	2040
bin	9.8256e-06	2085
bin	9.8968e-06	2074
bin	9.968e-06	2039
bin	1.00392e-05	1951
bin	1.01104e-05	1929
bin	1.01816e-05	1981
bin	1.02528e-05	2024
bin	1.0324e-05	1944
bin	1.03952e-05	1897
bin	1.04664e-05	1911
bin	1.05376e-05	1925
bin	1.06088e-05	1898
bin	1.068e-05	1851
bin	1.07512e-05	1880
bin	1.08224e-05	1890
bin	1.08936e-05	1894
bin	1.09648e-05	1928
bin	1.1036e-05	1865
bin	1.11072e-05	1919
bin	1.11784e-05	1874
bin	1.12496e-05	1928
bin	1.13208e-05	1914
bin	1.1392e-05	1901
bin	1.14632e-05	1867
bin	1.15344e-05	1825
bin	1.16056e-05	1787
bin	1.16768e-05	1795
bin	1.1748e-05	1703
bin	1.18192e-05	1779
bin	1.18904e-05	1741
bin	1.19616e-05	1741
bin	1.20328e-05	1732
bin	1.2104e-05	1744
bin	1.21752e-05	1732
bin	1.22464e-05	1680
bin	1.23176e-05	1682
bin	1.23888e-05	1694
bin	1.246e-05	1671
bin	1.25312e-05	1695
bin	1.26024e-05	1715
bin	1.26736e-05	1647
bin	1.27448e-05	1660
bin	1.2816e-05	1680
bin	1.28872e-05	1669
bin	1.29584e-05	1648
bin	1.30296e-05	1609
bin	1.31008e-05	1652
bin	1.3172e-05	1666
bin	1.32432e-05	1584
bin	1.33144e-05	1573
bin	1.33856e-05	1547
bin	1.34568e-05	1661
bin	1.3528e-05	1569
bin	1.35992e-05	1622
bin	1.36704e-05	1446
bin	1.37416e-05	1530
bin	1.38128e-05	1562
bin	1.3884e-05	1580
bin	1.39552e-05	1562
bin	1.40264e-05	1549
bin	1.40976e-05	1516
bin	1.41688e-05	1501
bin	1.424e-05	1513
bin	1.43112e-05	1569
bin	1.43824e-05	1509
bin	1.44536e-05	1464
bin	1.45248e-05	1498
bin	1.4596e-05	1460
bin	1.46672e-05	1436
bin	1.47384e-05	1467
bin	1.48096e-05	1453
bin	1.48808e-05	1414
bin	1.4952e-05	1466
bin	1.50232e-05	1453
bin	1.50944e-05	1503
bin	1.51656e-05	1507
bin	1.52368e-05	1449
bin	1.5308e-05	1498
bin	1.53792e-05	1481
bin	1.54504e-05	1419
bin	1.55216e-05	1496
bin	1.55928e-05	1444
bin	1.5664e-05	1461
bin	1.57352e-05	1361
bin	1.58064e-05	1436
bin	1.58776e-05	1432
bin	1.59488e-05	1459
bin	1.602e-05	1396
bin	1.60912e-05	1397
bin	1.61624e-05	1423
bin	1.62336e-05	1425
bin	1.63048e-05	1442
bin	1.6376e-05	1473
bin	1.64472e-05	1487
bin	1.65184e-05	1454
bin	1.65896e-05	1420
bin	1.66608e-05	1468
bin	1.6732e-05	1330
bin	1.68032e-05	1417
bin	1.68744e-05	1399
bin	1.69456e-05	1415
bin	1.70168e-05	1431
bin	1.7088e-05	1376
bin	1.71592e-05	1376
bin	1.72304e-05	1370
bin	1.73016e-05	1349
bin	1.73728e-05	1358
bin	1.7444e-05	1320
bin	1.75152e-05	1349
bin	1.75864e-05	1318
bin	1.76576e-05	1323
bin	1.77288e-05	1309
bin	1.78e-05	1330
bin	1.78712e-05	1339
bin	1.79424e-05	1292
bin	1.80136e-05	1267
bin	1.80848e-05	1323
bin	1.8156e-05	1283
bin	1.82272e-05	1272
bin	1.82984e-05	1290
bin	1.83696e-05	1291
bin	1.84408e-05	1280
bin	1.8512e-05	1349
bin	1.85832e-05	1294
bin	1.86544e-05	1297
bin	1.87256e-05	1294
bin	1.87968e-05	1271
bin	1.8868e-05	1277
bin	1.89392e-05	1348
bin	1.90104e-05	1366
bin	1.90816e-05	1387
bin	1.91528e-05	1348
bin	1.9224e-05	1343
bin	1.92952e-05	1345
bin	1.93664e-05	1342
bin	1.94376e-05	1341
bin	1.95088e-05	1328
bin	1.958e-05	1349
bin	1.96512e-05	1351
bin	1.97224e-05	1340
bin	1.97936e-05	1385
bin	1.98648e-05	1373
bin	1.9936e-05	1318
bin	2.00072e-05	1305
bin	2.00784e-05	1335
bin	2.01496e-05	1262
bin	2.02208e-05	1282
bin	2.0292e-05	1224
bin	2.03632e-05	1243
bin	2.04344e-05	1242
bin	2.05056e-05	1272
bin	2.05768e-05	1282
bin	2.0648e-05	1232
bin	2.07192e-05	1197
bin	2.07904e-05	1261
bin	2.08616e-05	1347
bin	2.09328e-05	1270
bin	2.1004e-05	1242
bin	2.10752e-05	1265
bin	2.11464e-05	1281
bin	2.12176e-05	1284
bin	2.12888e-05	1224
bin	2.136e-05	1317
bin	2.14312e-05	1223
bin	2.15024e-05	1306
bin	2.15736e-05	1223
bin	2.16448e-05	1288
bin	2.1716e-05	1279
bin	2.17872e-05	1306
bin	2.18584e-05	1295
bin	2.19296e-05	1299
bin	2.20008e-05	1220
bin	2.2072e-05	1282
bin	2.21432e-05	1227
bin	2.22144e-05	1195
bin	2.22856e-05	1221
bin	2.23568e-05	1287
bin	2.2428e-05	1252
bin	2.24992e-05	1299
bin	2.25704e-05	1285
bin	2.26416e-05	1256
bin	2.27128e-05	1292
bin	2.2784e-05	1253
bin	2.28552e-05	1235
bin	2.29264e-05	1203
bin	2.29976e-05	1194
bin	2.30688e-05	1245
bin	2.314e-05	1261
bin	2.32112e-05	1261
bin	2.32824e-05	1239
bin	2.33536e-05	1221
bin	2.34248e-05	1209
bin	2.3496e-05	1232
bin	2.35672e-05	1308
bin	2.36384e-05	1291
bin	2.37096e-05	1242
bin	2.37808e-05	1226
bin	2.3852e-05	1264
bin	2.39232e-05	1259
bin	2.39944e-05	1167
bin	2.40656e-05	1149
bin	2.41368e-05	1184
bin	2.4208e-05	1160
bin	2.42792e-05	1210
bin	2.43504e-05	1195
bin	2.44216e-05	1187
bin	2.44928e-05	1146
bin	2.4564e-05	1198
bin	2.46352e-05	1186
bin	2.47064e-05	1208
bin	2.47776e-05	1191
bin	2.48488e-05	1246
bin	2.492e-05	1170
bin	2.49912e-05	1179
bin	2.50624e-05	1196
bin	2.51336e-05	1198
bin	2.52048e-05	1190
bin	2.5276e-05	1183
bin	2.53472e-05	1234
bin	2.54184e-05	1216
bin	2.54896e-05	1228
bin	2.55608e-05	1203
bin	2.5632e-05	1166
bin	2.57032e-05	1147
bin	2.57744e-05	1170
bin	2.58456e-05	1161
bin	2.59168e-05	1146
bin	2.5988e-05	1144
bin	2.60592e-05	1226
bin	2.61304e-05	1160
bin	2.62016e-05	1197
bin	2.62728e-05	1167
bin	2.6344e-05	1135
bin	2.64152e-05	1148
bin	2.64864e-05	1156
bin	2.65576e-05	1168
bin	2.66288e-05	1122
bin	2.67e-05	1189
bin	2.67712e-05	1170
bin	2.68424e-05	1199
bin	2.69136e-05	1217
bin	2.69848e-05	1122
bin	2.7056e-05	1151
bin	2.71272e-05	1152
bin	2.71984e-05	1163
bin	2.72696e-05	1144
bin	2.73408e-05	1129
bin	2.7412e-05	1168
bin	2.74832e-05	1118
bin	2.75544e-05	1165
bin	2.76256e-05	1167
bin	2.76968e-05	1078
bin	2.7768e-05	1043
bin	2.78392e-05	1064
bin	2.79104e-05	1147
bin	2.79816e-05	1107
bin	2.80528e-05	1104
bin	2.8124e-05	1135
bin	2.81952e-05	1189
bin	2.82664e-05	1158
bin	2.83376e-05	1162
bin	2.84088e-05	1129
bin	2.848e-05	1119
bin	2.85512e-05	1109
bin	2.86224e-05	1115
bin	2.86936e-05	1157
bin	2.87648e-05	1116
bin	2.8836e-05	1189
bin	2.89072e-05	1180
bin	2.89784e-05	1204
bin	2.90496e-05	1192
bin	2.91208e-05	1192
bin	2.9192e-05	1156
bin	2.92632e-05	1189
bin	2.93344e-05	1180
bin	2.94056e-05	1247
bin	2.94768e-05	1257
bin	2.9548e-05	1253
bin	2.96192e-05	1240
bin	2.96904e-05	1160
bin	2.97616e-05	1190
bin	2.98328e-05	1203
bin	2.9904e-05	1183
bin	2.99752e-05	1176
bin	3.00464e-05	1201
bin	3.01176e-05	1221
bin	3.01888e-05	1171
bin	3.026e-05	1224
bin	3.03312e-05	1197
bin	3.04024e-05	1245
bin	3.04736e-05	1154
bin	3.05448e-05	1191
bin	3.0616e-05	1204
bin	3.06872e-05	1200
bin	3.07584e-05	1181
bin	3.08296e-05	1122
bin	3.09008e-05	1155
bin	3.0972e-05	1117
bin	3.10432e-05	1117
bin	3.11144e-05	1117
bin	3.11856e-05	1123
bin	3.12568e-05	1151
bin	3.1328e-05	1131
bin	3.13992e-05	1209
bin	3.14704e-05	1232
bin	3.15416e-05	1194
bin	3.16128e-05	1181
bin	3.1684e-05	1104
bin	3.17552e-05	1116
bin	3.18264e-05	1125
bin	3.18976e-05	1172
bin	3.19688e-05	1194
bin	3.204e-05	1152
bin	3.21112e-05	1195
bin	3.21824e-05	1108
bin	3.22536e-05	1144
bin	3.23248e-05	1172
bin	3.2396e-05	1190
bin	3.24672e-05	1227
bin	3.25384e-05	1194
bin	3.26096e-05	1229
bin	3.26808e-05	1238
bin	3.2752e-05	1256
bin	3.28232e-05	1193
bin	3.28944e-05	1233
bin	3.29656e-05	1165
bin	3.30368e-05	1234
bin	3.3108e-05	1201
bin	3.31792e-05	1141
bin	3.32504e-05	1176
bin	3.33216e-05	1195
bin	3.33928e-05	1262
bin	3.3464e-05	1236
bin	3.35352e-05	1234
bin	3.36064e-05	1218
bin	3.36776e-05	1184
bin	3.37488e-05	1182
bin	3.382e-05	1204
bin	3.38912e-05	1223
bin	3.39624e-05	1238
bin	3.40336e-05	1249
bin	3.41048e-05	1193
bin	3.4176e-05	1153
bin	3.42472e-05	1238
bin	3.43184e-05	1249
bin	3.43896e-05	1241
bin	3.44608e-05	1288
bin	3.4532e-05	1302
bin	3.46032e-05	1276
bin	3.46744e-05	1201
bin	3.47456e-05	1234
bin	3.48168e-05	1235
bin	3.4888e-05	1251
bin	3.49592e-05	1239
bin	3.50304e-05	1247
bin	3.51016e-05	1229
bin	3.51728e-05	1229
bin	3.5244e-05	1260
bin	3.53152e-05	1263
bin	3.53864e-05	1219
bin	3.54576e-05	1255
bin	3.55288e-05	1246
bin	3.56e-05	4589867
statistic Torus3d_bub.timer 	"Life Times"
field count 6291456
field mean 0.0013482905914723
field stddev 0.00096102083520443
field sum 8482.7109314617
field sqrsum 17.247702097825
field min 5.2e-07
field max 0.003875981327527
bin	-INF	0
bin	0	14
bin	8.544e-07	363
bin	1.7088e-06	1163
bin	2.5632e-06	2128
bin	3.4176e-06	3239
bin	4.272e-06	4402
bin	5.1264e-06	5586
bin	5.9808e-06	6837
bin	6.8352e-06	8014
bin	7.6896e-06	9618
bin	8.544e-06	11017
bin	9.3984e-06	12608
bin	1.02528e-05	14240
bin	1.11072e-05	15138
bin	1.19616e-05	16353
bin	1.2816e-05	17442
bin	1.36704e-05	18749
bin	1.45248e-05	19542
bin	1.53792e-05	20634
bin	1.62336e-05	21843
bin	1.7088e-05	22880
bin	1.79424e-05	23931
bin	1.87968e-05	25061
bin	1.96512e-05	26601
bin	2.05056e-05	27847
bin	2.136e-05	29389
bin	2.22144e-05	30814
bin	2.30688e-05	32734
bin	2.39232e-05	34215
bin	2.47776e-05	35448
bin	2.5632e-05	35181
bin	2.64864e-05	33630
bin	2.73408e-05	32288
bin	2.81952e-05	30470
bin	2.90496e-05	28670
bin	2.9904e-05	26615
bin	3.07584e-05	24326
bin	3.16128e-05	22397
bin	3.24672e-05	20460
bin	3.33216e-05	18289
bin	3.4176e-05	16545
bin	3.50304e-05	14903
bin	3.58848e-05	13009
bin	3.67392e-05	12282
bin	3.75936e-05	11380
bin	3.8448e-05	10442
bin	3.93024e-05	10059
bin	4.01568e-05	9446
bin	4.10112e-05	9120
bin	4.18656e-05	8748
bin	4.272e-05	8478
bin	4.35744e-05	8347
bin	4.44288e-05	8062
bin	4.52832e-05	8012
bin	4.61376e-05	7771
bin	4.6992e-05	7543
bin	4.78464e-05	7456
bin	4.87008e-05	7495
bin	4.95552e-05	7418
bin	5.04096e-05	7177
bin	5.1264e-05	6937
bin	5.21184e-05	6813
bin	5.29728e-05	6415
bin	5.38272e-05	6261
bin	5.46816e-05	5902
bin	5.5536e-05	5665
bin	5.63904e-05	5434
bin	5.72448e-05	5056
bin	5.80992e-05	4875
bin	5.89536e-05	4581
bin	5.9808e-05	4413
bin	6.06624e-05	4377
bin	6.15168e-05	4116
bin	6.23712e-05	4100
bin	6.32256e-05	4015
bin	6.408e-05	3874
bin	6.49344e-05	3813
bin	6.57888e-05	3711
bin	6.66432e-05	3636
bin	6.74976e-05	3614
bin	6.8352e-05	3634
bin	6.92064e-05	3632
bin	7.00608e-05	3678
bin	7.09152e-05	3560
bin	7.17696e-05	3467
bin	7.2624e-05	3523
bin	7.34784e-05	3530
bin	7.43328e-05	3581
bin	7.51872e-05	3479
bin	7.60416e-05	3378
bin	7.6896e-05	3420
bin	7.77504e-05	3341
bin	7.86048e-05	3214
bin	7.94592e-05	3164
bin	8.03136e-05	3036
bin	8.1168e-05	3007
bin	8.20224e-05	3030
bin	8.28768e-05	2934
bin	8.37312e-05	2823
bin	8.45856e-05	2858
bin	8.544e-05	2776
bin	8.62944e-05	2666
bin	8.71488e-05	2609
bin	8.80032e-05	2615
bin	8.88576e-05	2546
bin	8.9712e-05	2468
bin	9.05664e-05	2532
bin	9.14208e-05	2503
bin	9.22752e-05	2479
bin	9.31296e-05	2410
bin	9.3984e-05	2520
bin	9.48384e-05	2515
bin	9.56928e-05	2465
bin	9.65472e-05	2473
bin	9.74016e-05	2485
bin	9.8256e-05	2489
bin	9.91104e-05	2424
bin	9.99648e-05	2465
bin	0.0001008192	2370
bin	0.0001016736	2346
bin	0.000102528	2361
bin	0.0001033824	2282
bin	0.0001042368	2192
bin	0.0001050912	2226
bin	0.0001059456	2223
bin	0.0001068	2149
bin	0.0001076544	2168
bin	0.0001085088	2092
bin	0.0001093632	2039
bin	0.0001102176	2103
bin	0.000111072	2064
bin	0.0001119264	2022
bin	0.0001127808	1997
bin	0.0001136352	1987
bin	0.0001144896	2007
bin	0.000115344	1964
bin	0.0001161984	1985
bin	0.0001170528	1952
bin	0.0001179072	2126
bin	0.0001187616	2059
bin	0.000119616	1998
bin	0.0001204704	1985
bin	0.0001213248	2081
bin	0.0001221792	2049
bin	0.0001230336	1958
bin	0.000123888	2041
bin	0.0001247424	2036
bin	0.0001255968	1952
bin	0.0001264512	1906
bin	0.0001273056	1881
bin	0.00012816	1916
bin	0.0001290144	1906
bin	0.0001298688	1902
bin	0.0001307232	1914
bin	0.0001315776	1808
bin	0.000132432	1881
bin	0.0001332864	1794
bin	0.0001341408	1759
bin	0.0001349952	1673
bin	0.0001358496	1789
bin	0.000136704	1675
bin	0.0001375584	1638
bin	0.0001384128	1770
bin	0.0001392672	1764
bin	0.0001401216	1704
bin	0.000140976	1740
bin	0.0001418304	1720
bin	0.0001426848	1665
bin	0.0001435392	1701
bin	0.0001443936	1716
bin	0.000145248	1696
bin	0.0001461024	1710
bin	0.0001469568	1788
bin	0.0001478112	1742
bin	0.0001486656	1731
bin	0.00014952	1750
bin	0.0001503744	1794
bin	0.0001512288	1814
bin	0.0001520832	1726
bin	0.0001529376	1697
bin	0.000153792	1723
bin	0.0001546464	1638
bin	0.0001555008	1634
bin	0.0001563552	1625
bin	0.0001572096	1600
bin	0.000158064	1584
bin	0.0001589184	1532
bin	0.0001597728	1555
bin	0.0001606272	1522
bin	0.0001614816	1583
bin	0.000162336	1574
bin	0.0001631904	1458
bin	0.0001640448	1472
bin	0.0001648992	1510
bin	0.0001657536	1534
bin	0.000166608	1477
bin	0.0001674624	1468
bin	0.0001683168	1536
bin	0.0001691712	1533
bin	0.0001700256	1572
bin	0.00017088	1498
bin	0.0001717344	1597
bin	0.0001725888	1569
bin	0.0001734432	1588
bin	0.0001742976	1617
bin	0.000175152	1649
bin	0.0001760064	1656
bin	0.0001768608	1624
bin	0.0001777152	1563
bin	0.0001785696	1603
bin	0.000179424	1530
bin	0.0001802784	1539
bin	0.0001811328	1497
bin	0.0001819872	1433
bin	0.0001828416	1456
bin	0.000183696	1533
bin	0.0001845504	1509
bin	0.0001854048	1501
bin	0.0001862592	1502
bin	0.0001871136	1461
bin	0.000187968	1542
bin	0.0001888224	1498
bin	0.0001896768	1471
bin	0.0001905312	1480
bin	0.0001913856	1450
bin	0.00019224	1461
bin	0.0001930944	1491
bin	0.0001939488	1430
bin	0.0001948032	1561
bin	0.0001956576	1497
bin	0.000196512	1494
bin	0.0001973664	1520
bin	0.0001982208	1530
bin	0.0001990752	1520
bin	0.0001999296	1486
bin	0.000200784	1430
bin	0.0002016384	1464
bin	0.0002024928	1474
bin	0.0002033472	1427
bin	0.0002042016	1454
bin	0.000205056	1451
bin	0.0002059104	1412
bin	0.0002067648	1374
bin	0.0002076192	1387
bin	0.0002084736	1334
bin	0.000209328	1360
bin	0.0002101824	1316
bin	0.0002110368	1324
bin	0.0002118912	1242
bin	0.0002127456	1269
bin	0.0002136	1305
bin	0.0002144544	1271
bin	0.0002153088	1234
bin	0.0002161632	1235
bin	0.0002170176	1276
bin	0.000217872	1225
bin	0.0002187264	1230
bin	0.0002195808	1269
bin	0.0002204352	1220
bin	0.0002212896	1329
bin	0.000222144	1245
bin	0.0002229984	1291
bin	0.0002238528	1256
bin	0.0002247072	1330
bin	0.0002255616	1236
bin	0.000226416	1290
bin	0.0002272704	1307
bin	0.0002281248	1261
bin	0.0002289792	1298
bin	0.0002298336	1301
bin	0.000230688	1282
bin	0.0002315424	1288
bin	0.0002323968	1264
bin	0.0002332512	1253
bin	0.0002341056	1201
bin	0.00023496	1260
bin	0.0002358144	1249
bin	0.0002366688	1221
bin	0.0002375232	1225
bin	0.0002383776	1215
bin	0.000239232	1265
bin	0.0002400864	1269
bin	0.0002409408	1293
bin	0.0002417952	1281
bin	0.0002426496	1306
bin	0.000243504	1278
bin	0.0002443584	1290
bin	0.0002452128	1267
bin	0.0002460672	1342
bin	0.0002469216	1287
bin	0.000247776	1281
bin	0.0002486304	1316
bin	0.0002494848	1335
bin	0.0002503392	1299
bin	0.0002511936	1255
bin	0.000252048	1259
bin	0.0002529024	1189
bin	0.0002537568	1219
bin	0.0002546112	1239
bin	0.0002554656	1252
bin	0.00025632	1220
bin	0.0002571744	1200
bin	0.0002580288	1192
bin	0.0002588832	1228
bin	0.0002597376	1170
bin	0.000260592	1264
bin	0.0002614464	1192
bin	0.0002623008	1171
bin	0.0002631552	1177
bin	0.0002640096	1153
bin	0.000264864	1130
bin	0.0002657184	1134
bin	0.0002665728	1035
bin	0.0002674272	1078
bin	0.0002682816	1083
bin	0.000269136	1062
bin	0.0002699904	1072
bin	0.0002708448	1131
bin	0.0002716992	1087
bin	0.0002725536	1125
bin	0.000273408	1084
bin	0.0002742624	1092
bin	0.0002751168	1108
bin	0.0002759712	1100
bin	0.0002768256	1124
bin	0.00027768	1084
bin	0.0002785344	1099
bin	0.0002793888	1081
bin	0.0002802432	1064
bin	0.0002810976	1030
bin	0.000281952	1078
bin	0.0002828064	1056
bin	0.0002836608	1106
bin	0.0002845152	1028
bin	0.0002853696	1016
bin	0.000286224	1038
bin	0.0002870784	1039
bin	0.0002879328	1015
bin	0.0002887872	980
bin	0.0002896416	996
bin	0.000290496	986
bin	0.0002913504	979
bin	0.0002922048	983
bin	0.0002930592	958
bin	0.0002939136	976
bin	0.000294768	993
bin	0.0002956224	1043
bin	0.0002964768	1050
bin	0.0002973312	1068
bin	0.0002981856	1053
bin	0.00029904	1082
bin	0.0002998944	1097
bin	0.0003007488	1073
bin	0.0003016032	1045
bin	0.0003024576	1057
bin	0.000303312	1035
bin	0.0003041664	1064
bin	0.0003050208	1060
bin	0.0003058752	1045
bin	0.0003067296	1078
bin	0.000307584	1105
bin	0.0003084384	1094
bin	0.0003092928	1076
bin	0.0003101472	1043
bin	0.0003110016	1057
bin	0.000311856	1005
bin	0.0003127104	1088
bin	0.0003135648	1063
bin	0.0003144192	1026
bin	0.0003152736	1043
bin	0.000316128	1091
bin	0.0003169824	1112
bin	0.0003178368	1085
bin	0.0003186912	1109
bin	0.0003195456	1044
bin	0.0003204	1029
bin	0.0003212544	1059
bin	0.0003221088	1017
bin	0.0003229632	1055
bin	0.0003238176	1080
bin	0.000324672	1090
bin	0.0003255264	1120
bin	0.0003263808	1129
bin	0.0003272352	1134
bin	0.0003280896	1140
bin	0.000328944	1120
bin	0.0003297984	1089
bin	0.0003306528	1089
bin	0.0003315072	1044
bin	0.0003323616	1095
bin	0.000333216	1059
bin	0.0003340704	1088
bin	0.0003349248	1067
bin	0.0003357792	1124
bin	0.0003366336	1109
bin	0.000337488	1074
bin	0.0003383424	1085
bin	0.0003391968	1122
bin	0.0003400512	1067
bin	0.0003409056	1064
bin	0.00034176	1096
bin	0.0003426144	1085
bin	0.0003434688	1054
bin	0.0003443232	1075
bin	0.0003451776	1141
bin	0.000346032	1202
bin	0.0003468864	1123
bin	0.0003477408	1220
bin	0.0003485952	1218
bin	0.0003494496	1225
bin	0.000350304	1144
bin	0.0003511584	1144
bin	0.0003520128	1129
bin	0.0003528672	1144
bin	0.0003537216	1179
bin	0.000354576	1169
bin	0.0003554304	1114
bin	0.0003562848	1177
bin	0.0003571392	1116
bin	0.0003579936	1123
bin	0.000358848	1102
bin	0.0003597024	1068
bin	0.0003605568	1094
bin	0.0003614112	1108
bin	0.0003622656	1063
bin	0.00036312	1094
bin	0.0003639744	1121
bin	0.0003648288	1144
bin	0.0003656832	1199
bin	0.0003665376	1173
bin	0.000367392	1167
bin	0.0003682464	1138
bin	0.0003691008	1142
bin	0.0003699552	1172
bin	0.0003708096	1160
bin	0.000371664	1154
bin	0.0003725184	1149
bin	0.0003733728	1140
bin	0.0003742272	1116
bin	0.0003750816	1111
bin	0.000375936	1095
bin	0.0003767904	1129
bin	0.0003776448	1102
bin	0.0003784992	1128
bin	0.0003793536	1039
bin	0.000380208	1079
bin	0.0003810624	1050
bin	0.0003819168	1063
bin	0.0003827712	1081
bin	0.0003836256	1077
bin	0.00038448	1081
bin	0.0003853344	1111
bin	0.0003861888	1084
bin	0.0003870432	1123
bin	0.0003878976	1188
bin	0.000388752	1133
bin	0.0003896064	1138
bin	0.0003904608	1106
bin	0.0003913152	1167
bin	0.0003921696	1095
bin	0.000393024	1116
bin	0.0003938784	1145
bin	0.0003947328	1109
bin	0.0003955872	1097
bin	0.0003964416	1117
bin	0.000397296	1051
bin	0.0003981504	1034
bin	0.0003990048	1064
bin	0.0003998592	1062
bin	0.0004007136	1131
bin	0.000401568	1096
bin	0.0004024224	1096
bin	0.0004032768	1060
bin	0.0004041312	1111
bin	0.0004049856	1028
bin	0.00040584	1026
bin	0.0004066944	1064
bin	0.0004075488	1089
bin	0.0004084032	1048
bin	0.0004092576	1008
bin	0.000410112	1020
bin	0.0004109664	1049
bin	0.0004118208	1041
bin	0.0004126752	1050
bin	0.0004135296	1058
bin	0.000414384	1099
bin	0.0004152384	1060
bin	0.0004160928	1110
bin	0.0004169472	1041
bin	0.0004178016	1047
bin	0.000418656	1070
bin	0.0004195104	1064
bin	0.0004203648	1052
bin	0.0004212192	1050
bin	0.0004220736	1045
bin	0.000422928	1025
bin	0.0004237824	1062
bin	0.0004246368	1073
bin	0.0004254912	1062
bin	0.0004263456	984
bin	0.0004272	4611960
