version 2
run Permutation-57-20120711-00:20:03-28158
attr alg 1
attr buf 8
attr configname Permutation
attr datetime 20120711-00:20:03
attr delta 1
attr experiment Permutation
attr ext false
attr inifile altro.ini
attr iterationvars "$buf=8, $ext=false, $ofedge=1, $delta=1, $alg=1"
attr iterationvars2 "$buf=8, $ext=false, $ofedge=1, $delta=1, $alg=1, $repetition=0"
attr measurement "$buf=8, $ext=false, $ofedge=1, $delta=1, $alg=1"
attr network Torus3d_bub
attr ofedge 1
attr processid 28158
attr repetition 0
attr replication #0
attr resultdir altro-results
attr runnumber 57
attr seedset 57

scalar . 	alg 	1
scalar . 	buf 	8
scalar . 	delta 	1
scalar . 	ofedge 	1
scalar Torus3d_bub.timer 	#endTime 	0.004970430992239
scalar Torus3d_bub.timer 	#totalHops 	86570493
scalar Torus3d_bub.timer 	#totalPacks 	6291456
scalar Torus3d_bub.timer 	#totalDerouted 	2384013
scalar Torus3d_bub.timer 	#totalOutFlanked 	2384013
scalar Torus3d_bub.timer 	#totalCQRed 	0
scalar Torus3d_bub.timer 	#LB 	0.000786432
scalar Torus3d_bub.timer 	#ratio 	0.15822209406548
statistic Torus3d_bub.timer 	"Hop Times"
field count 6291456
field mean 0.0001576871487109
field stddev 0.00014423772919632
field sum 992.08175788007
field sqrsum 0.28732926094261
field min 3.77125e-07
field max 0.003483769999923
bin	-INF	0
bin	0	0
bin	7.12e-08	0
bin	1.424e-07	0
bin	2.136e-07	0
bin	2.848e-07	0
bin	3.56e-07	180
bin	4.272e-07	981
bin	4.984e-07	2185
bin	5.696e-07	3229
bin	6.408e-07	4460
bin	7.12e-07	5841
bin	7.832e-07	6913
bin	8.544e-07	8288
bin	9.256e-07	9512
bin	9.968e-07	10617
bin	1.068e-06	11910
bin	1.1392e-06	13666
bin	1.2104e-06	15015
bin	1.2816e-06	16705
bin	1.3528e-06	18710
bin	1.424e-06	20647
bin	1.4952e-06	22545
bin	1.5664e-06	24300
bin	1.6376e-06	25877
bin	1.7088e-06	26659
bin	1.78e-06	27323
bin	1.8512e-06	27402
bin	1.9224e-06	27120
bin	1.9936e-06	26349
bin	2.0648e-06	25533
bin	2.136e-06	24306
bin	2.2072e-06	22794
bin	2.2784e-06	21527
bin	2.3496e-06	20552
bin	2.4208e-06	19030
bin	2.492e-06	17785
bin	2.5632e-06	16517
bin	2.6344e-06	15353
bin	2.7056e-06	14441
bin	2.7768e-06	13527
bin	2.848e-06	12473
bin	2.9192e-06	11685
bin	2.9904e-06	11005
bin	3.0616e-06	10369
bin	3.1328e-06	9807
bin	3.204e-06	9168
bin	3.2752e-06	8681
bin	3.3464e-06	8265
bin	3.4176e-06	7810
bin	3.4888e-06	7454
bin	3.56e-06	7067
bin	3.6312e-06	6801
bin	3.7024e-06	6403
bin	3.7736e-06	6235
bin	3.8448e-06	6069
bin	3.916e-06	5666
bin	3.9872e-06	5403
bin	4.0584e-06	5192
bin	4.1296e-06	4941
bin	4.2008e-06	4801
bin	4.272e-06	4729
bin	4.3432e-06	4597
bin	4.4144e-06	4556
bin	4.4856e-06	4380
bin	4.5568e-06	4261
bin	4.628e-06	4067
bin	4.6992e-06	3973
bin	4.7704e-06	3837
bin	4.8416e-06	3618
bin	4.9128e-06	3579
bin	4.984e-06	3446
bin	5.0552e-06	3528
bin	5.1264e-06	3362
bin	5.1976e-06	3392
bin	5.2688e-06	3282
bin	5.34e-06	3172
bin	5.4112e-06	3104
bin	5.4824e-06	3059
bin	5.5536e-06	3071
bin	5.6248e-06	3007
bin	5.696e-06	2875
bin	5.7672e-06	2954
bin	5.8384e-06	2772
bin	5.9096e-06	2744
bin	5.9808e-06	2662
bin	6.052e-06	2599
bin	6.1232e-06	2668
bin	6.1944e-06	2549
bin	6.2656e-06	2436
bin	6.3368e-06	2529
bin	6.408e-06	2422
bin	6.4792e-06	2375
bin	6.5504e-06	2341
bin	6.6216e-06	2331
bin	6.6928e-06	2277
bin	6.764e-06	2241
bin	6.8352e-06	2153
bin	6.9064e-06	2144
bin	6.9776e-06	2113
bin	7.0488e-06	2143
bin	7.12e-06	2115
bin	7.1912e-06	2172
bin	7.2624e-06	2066
bin	7.3336e-06	2037
bin	7.4048e-06	2049
bin	7.476e-06	2049
bin	7.5472e-06	1930
bin	7.6184e-06	1924
bin	7.6896e-06	1899
bin	7.7608e-06	1903
bin	7.832e-06	1924
bin	7.9032e-06	1921
bin	7.9744e-06	1932
bin	8.0456e-06	1902
bin	8.1168e-06	1815
bin	8.188e-06	1770
bin	8.2592e-06	1715
bin	8.3304e-06	1729
bin	8.4016e-06	1826
bin	8.4728e-06	1714
bin	8.544e-06	1732
bin	8.6152e-06	1680
bin	8.6864e-06	1711
bin	8.7576e-06	1739
bin	8.8288e-06	1741
bin	8.9e-06	1674
bin	8.9712e-06	1652
bin	9.0424e-06	1615
bin	9.1136e-06	1626
bin	9.1848e-06	1572
bin	9.256e-06	1587
bin	9.3272e-06	1597
bin	9.3984e-06	1601
bin	9.4696e-06	1568
bin	9.5408e-06	1513
bin	9.612e-06	1519
bin	9.6832e-06	1552
bin	9.7544e-06	1539
bin	9.8256e-06	1499
bin	9.8968e-06	1495
bin	9.968e-06	1473
bin	1.00392e-05	1469
bin	1.01104e-05	1444
bin	1.01816e-05	1376
bin	1.02528e-05	1349
bin	1.0324e-05	1374
bin	1.03952e-05	1340
bin	1.04664e-05	1409
bin	1.05376e-05	1347
bin	1.06088e-05	1296
bin	1.068e-05	1311
bin	1.07512e-05	1318
bin	1.08224e-05	1326
bin	1.08936e-05	1321
bin	1.09648e-05	1376
bin	1.1036e-05	1335
bin	1.11072e-05	1318
bin	1.11784e-05	1374
bin	1.12496e-05	1310
bin	1.13208e-05	1317
bin	1.1392e-05	1336
bin	1.14632e-05	1331
bin	1.15344e-05	1302
bin	1.16056e-05	1320
bin	1.16768e-05	1275
bin	1.1748e-05	1287
bin	1.18192e-05	1274
bin	1.18904e-05	1211
bin	1.19616e-05	1260
bin	1.20328e-05	1301
bin	1.2104e-05	1277
bin	1.21752e-05	1269
bin	1.22464e-05	1212
bin	1.23176e-05	1203
bin	1.23888e-05	1193
bin	1.246e-05	1221
bin	1.25312e-05	1211
bin	1.26024e-05	1236
bin	1.26736e-05	1224
bin	1.27448e-05	1228
bin	1.2816e-05	1260
bin	1.28872e-05	1250
bin	1.29584e-05	1236
bin	1.30296e-05	1247
bin	1.31008e-05	1218
bin	1.3172e-05	1196
bin	1.32432e-05	1191
bin	1.33144e-05	1191
bin	1.33856e-05	1219
bin	1.34568e-05	1185
bin	1.3528e-05	1223
bin	1.35992e-05	1222
bin	1.36704e-05	1160
bin	1.37416e-05	1265
bin	1.38128e-05	1268
bin	1.3884e-05	1195
bin	1.39552e-05	1188
bin	1.40264e-05	1230
bin	1.40976e-05	1253
bin	1.41688e-05	1218
bin	1.424e-05	1212
bin	1.43112e-05	1278
bin	1.43824e-05	1260
bin	1.44536e-05	1301
bin	1.45248e-05	1235
bin	1.4596e-05	1302
bin	1.46672e-05	1274
bin	1.47384e-05	1244
bin	1.48096e-05	1150
bin	1.48808e-05	1205
bin	1.4952e-05	1179
bin	1.50232e-05	1194
bin	1.50944e-05	1181
bin	1.51656e-05	1204
bin	1.52368e-05	1097
bin	1.5308e-05	1157
bin	1.53792e-05	1184
bin	1.54504e-05	1129
bin	1.55216e-05	1190
bin	1.55928e-05	1188
bin	1.5664e-05	1200
bin	1.57352e-05	1167
bin	1.58064e-05	1174
bin	1.58776e-05	1173
bin	1.59488e-05	1179
bin	1.602e-05	1184
bin	1.60912e-05	1137
bin	1.61624e-05	1116
bin	1.62336e-05	1173
bin	1.63048e-05	1155
bin	1.6376e-05	1147
bin	1.64472e-05	1154
bin	1.65184e-05	1055
bin	1.65896e-05	1072
bin	1.66608e-05	1093
bin	1.6732e-05	1056
bin	1.68032e-05	1100
bin	1.68744e-05	1102
bin	1.69456e-05	1073
bin	1.70168e-05	1057
bin	1.7088e-05	1092
bin	1.71592e-05	1108
bin	1.72304e-05	1089
bin	1.73016e-05	1067
bin	1.73728e-05	1099
bin	1.7444e-05	1102
bin	1.75152e-05	1069
bin	1.75864e-05	1040
bin	1.76576e-05	1077
bin	1.77288e-05	1098
bin	1.78e-05	1068
bin	1.78712e-05	1107
bin	1.79424e-05	1095
bin	1.80136e-05	1118
bin	1.80848e-05	1086
bin	1.8156e-05	1101
bin	1.82272e-05	1110
bin	1.82984e-05	1136
bin	1.83696e-05	1100
bin	1.84408e-05	1102
bin	1.8512e-05	1072
bin	1.85832e-05	1126
bin	1.86544e-05	1123
bin	1.87256e-05	1085
bin	1.87968e-05	1085
bin	1.8868e-05	1034
bin	1.89392e-05	1094
bin	1.90104e-05	1073
bin	1.90816e-05	1063
bin	1.91528e-05	1085
bin	1.9224e-05	1051
bin	1.92952e-05	1066
bin	1.93664e-05	1052
bin	1.94376e-05	1065
bin	1.95088e-05	1071
bin	1.958e-05	1015
bin	1.96512e-05	1002
bin	1.97224e-05	1042
bin	1.97936e-05	1096
bin	1.98648e-05	1050
bin	1.9936e-05	1038
bin	2.00072e-05	1053
bin	2.00784e-05	1050
bin	2.01496e-05	1019
bin	2.02208e-05	1038
bin	2.0292e-05	1080
bin	2.03632e-05	1024
bin	2.04344e-05	1027
bin	2.05056e-05	1019
bin	2.05768e-05	1067
bin	2.0648e-05	1013
bin	2.07192e-05	1006
bin	2.07904e-05	1030
bin	2.08616e-05	1031
bin	2.09328e-05	1034
bin	2.1004e-05	1051
bin	2.10752e-05	974
bin	2.11464e-05	1034
bin	2.12176e-05	1000
bin	2.12888e-05	1003
bin	2.136e-05	1012
bin	2.14312e-05	1008
bin	2.15024e-05	1086
bin	2.15736e-05	1019
bin	2.16448e-05	1059
bin	2.1716e-05	1017
bin	2.17872e-05	1043
bin	2.18584e-05	1030
bin	2.19296e-05	1049
bin	2.20008e-05	1032
bin	2.2072e-05	981
bin	2.21432e-05	1008
bin	2.22144e-05	1026
bin	2.22856e-05	1007
bin	2.23568e-05	1004
bin	2.2428e-05	1010
bin	2.24992e-05	1065
bin	2.25704e-05	1027
bin	2.26416e-05	996
bin	2.27128e-05	1078
bin	2.2784e-05	1011
bin	2.28552e-05	1021
bin	2.29264e-05	995
bin	2.29976e-05	993
bin	2.30688e-05	1032
bin	2.314e-05	994
bin	2.32112e-05	1047
bin	2.32824e-05	1017
bin	2.33536e-05	1055
bin	2.34248e-05	1018
bin	2.3496e-05	1033
bin	2.35672e-05	1012
bin	2.36384e-05	1046
bin	2.37096e-05	1023
bin	2.37808e-05	956
bin	2.3852e-05	1008
bin	2.39232e-05	1027
bin	2.39944e-05	1042
bin	2.40656e-05	972
bin	2.41368e-05	1034
bin	2.4208e-05	1012
bin	2.42792e-05	967
bin	2.43504e-05	997
bin	2.44216e-05	987
bin	2.44928e-05	976
bin	2.4564e-05	1009
bin	2.46352e-05	989
bin	2.47064e-05	953
bin	2.47776e-05	977
bin	2.48488e-05	943
bin	2.492e-05	964
bin	2.49912e-05	952
bin	2.50624e-05	956
bin	2.51336e-05	985
bin	2.52048e-05	1010
bin	2.5276e-05	986
bin	2.53472e-05	940
bin	2.54184e-05	944
bin	2.54896e-05	957
bin	2.55608e-05	888
bin	2.5632e-05	920
bin	2.57032e-05	927
bin	2.57744e-05	934
bin	2.58456e-05	930
bin	2.59168e-05	940
bin	2.5988e-05	967
bin	2.60592e-05	957
bin	2.61304e-05	939
bin	2.62016e-05	942
bin	2.62728e-05	958
bin	2.6344e-05	991
bin	2.64152e-05	935
bin	2.64864e-05	979
bin	2.65576e-05	921
bin	2.66288e-05	925
bin	2.67e-05	967
bin	2.67712e-05	926
bin	2.68424e-05	947
bin	2.69136e-05	975
bin	2.69848e-05	951
bin	2.7056e-05	999
bin	2.71272e-05	1027
bin	2.71984e-05	998
bin	2.72696e-05	981
bin	2.73408e-05	985
bin	2.7412e-05	972
bin	2.74832e-05	1017
bin	2.75544e-05	1059
bin	2.76256e-05	1002
bin	2.76968e-05	974
bin	2.7768e-05	984
bin	2.78392e-05	968
bin	2.79104e-05	982
bin	2.79816e-05	995
bin	2.80528e-05	963
bin	2.8124e-05	1051
bin	2.81952e-05	1055
bin	2.82664e-05	1002
bin	2.83376e-05	1028
bin	2.84088e-05	1022
bin	2.848e-05	966
bin	2.85512e-05	1062
bin	2.86224e-05	1029
bin	2.86936e-05	1001
bin	2.87648e-05	1004
bin	2.8836e-05	1006
bin	2.89072e-05	1009
bin	2.89784e-05	980
bin	2.90496e-05	1050
bin	2.91208e-05	1000
bin	2.9192e-05	1006
bin	2.92632e-05	984
bin	2.93344e-05	1011
bin	2.94056e-05	930
bin	2.94768e-05	945
bin	2.9548e-05	929
bin	2.96192e-05	950
bin	2.96904e-05	957
bin	2.97616e-05	954
bin	2.98328e-05	988
bin	2.9904e-05	961
bin	2.99752e-05	966
bin	3.00464e-05	1004
bin	3.01176e-05	1022
bin	3.01888e-05	947
bin	3.026e-05	964
bin	3.03312e-05	981
bin	3.04024e-05	990
bin	3.04736e-05	975
bin	3.05448e-05	966
bin	3.0616e-05	971
bin	3.06872e-05	941
bin	3.07584e-05	973
bin	3.08296e-05	936
bin	3.09008e-05	986
bin	3.0972e-05	986
bin	3.10432e-05	1004
bin	3.11144e-05	1048
bin	3.11856e-05	1034
bin	3.12568e-05	1059
bin	3.1328e-05	1053
bin	3.13992e-05	1083
bin	3.14704e-05	1011
bin	3.15416e-05	1035
bin	3.16128e-05	1052
bin	3.1684e-05	995
bin	3.17552e-05	998
bin	3.18264e-05	1031
bin	3.18976e-05	999
bin	3.19688e-05	954
bin	3.204e-05	922
bin	3.21112e-05	946
bin	3.21824e-05	963
bin	3.22536e-05	931
bin	3.23248e-05	988
bin	3.2396e-05	1011
bin	3.24672e-05	1046
bin	3.25384e-05	1067
bin	3.26096e-05	984
bin	3.26808e-05	1025
bin	3.2752e-05	987
bin	3.28232e-05	974
bin	3.28944e-05	921
bin	3.29656e-05	955
bin	3.30368e-05	905
bin	3.3108e-05	933
bin	3.31792e-05	921
bin	3.32504e-05	991
bin	3.33216e-05	970
bin	3.33928e-05	956
bin	3.3464e-05	947
bin	3.35352e-05	929
bin	3.36064e-05	950
bin	3.36776e-05	965
bin	3.37488e-05	924
bin	3.382e-05	898
bin	3.38912e-05	960
bin	3.39624e-05	972
bin	3.40336e-05	1005
bin	3.41048e-05	1006
bin	3.4176e-05	1006
bin	3.42472e-05	1025
bin	3.43184e-05	1045
bin	3.43896e-05	1063
bin	3.44608e-05	1061
bin	3.4532e-05	999
bin	3.46032e-05	979
bin	3.46744e-05	982
bin	3.47456e-05	1030
bin	3.48168e-05	973
bin	3.4888e-05	1015
bin	3.49592e-05	1003
bin	3.50304e-05	975
bin	3.51016e-05	974
bin	3.51728e-05	1006
bin	3.5244e-05	985
bin	3.53152e-05	1005
bin	3.53864e-05	1018
bin	3.54576e-05	1035
bin	3.55288e-05	981
bin	3.56e-05	4989027
statistic Torus3d_bub.timer 	"Life Times"
field count 6291456
field mean 0.0019673953631932
field stddev 0.0013110896519696
field sum 12377.781362134
field sqrsum 35.166724454478
field min 5.2e-07
field max 0.00469537765964
bin	-INF	0
bin	0	19
bin	8.544e-07	363
bin	1.7088e-06	1124
bin	2.5632e-06	2017
bin	3.4176e-06	3142
bin	4.272e-06	4151
bin	5.1264e-06	5134
bin	5.9808e-06	6251
bin	6.8352e-06	7252
bin	7.6896e-06	8483
bin	8.544e-06	9711
bin	9.3984e-06	10934
bin	1.02528e-05	11854
bin	1.11072e-05	12671
bin	1.19616e-05	13320
bin	1.2816e-05	14446
bin	1.36704e-05	15170
bin	1.45248e-05	15922
bin	1.53792e-05	16387
bin	1.62336e-05	17376
bin	1.7088e-05	18030
bin	1.79424e-05	18748
bin	1.87968e-05	19572
bin	1.96512e-05	20390
bin	2.05056e-05	21352
bin	2.136e-05	22330
bin	2.22144e-05	23384
bin	2.30688e-05	24158
bin	2.39232e-05	24957
bin	2.47776e-05	25364
bin	2.5632e-05	24614
bin	2.64864e-05	23610
bin	2.73408e-05	22512
bin	2.81952e-05	21144
bin	2.90496e-05	19896
bin	2.9904e-05	18451
bin	3.07584e-05	16865
bin	3.16128e-05	15511
bin	3.24672e-05	14223
bin	3.33216e-05	12956
bin	3.4176e-05	11926
bin	3.50304e-05	10737
bin	3.58848e-05	10115
bin	3.67392e-05	9066
bin	3.75936e-05	8440
bin	3.8448e-05	8125
bin	3.93024e-05	7474
bin	4.01568e-05	7296
bin	4.10112e-05	6798
bin	4.18656e-05	6698
bin	4.272e-05	6547
bin	4.35744e-05	6167
bin	4.44288e-05	6214
bin	4.52832e-05	5959
bin	4.61376e-05	5920
bin	4.6992e-05	5679
bin	4.78464e-05	5727
bin	4.87008e-05	5604
bin	4.95552e-05	5470
bin	5.04096e-05	5422
bin	5.1264e-05	5324
bin	5.21184e-05	5229
bin	5.29728e-05	4881
bin	5.38272e-05	4689
bin	5.46816e-05	4324
bin	5.5536e-05	4292
bin	5.63904e-05	3945
bin	5.72448e-05	3921
bin	5.80992e-05	3750
bin	5.89536e-05	3560
bin	5.9808e-05	3453
bin	6.06624e-05	3278
bin	6.15168e-05	3286
bin	6.23712e-05	3189
bin	6.32256e-05	3065
bin	6.408e-05	2940
bin	6.49344e-05	2956
bin	6.57888e-05	2873
bin	6.66432e-05	2751
bin	6.74976e-05	2703
bin	6.8352e-05	2701
bin	6.92064e-05	2709
bin	7.00608e-05	2757
bin	7.09152e-05	2699
bin	7.17696e-05	2793
bin	7.2624e-05	2729
bin	7.34784e-05	2738
bin	7.43328e-05	2699
bin	7.51872e-05	2686
bin	7.60416e-05	2590
bin	7.6896e-05	2604
bin	7.77504e-05	2542
bin	7.86048e-05	2453
bin	7.94592e-05	2377
bin	8.03136e-05	2325
bin	8.1168e-05	2233
bin	8.20224e-05	2179
bin	8.28768e-05	2228
bin	8.37312e-05	2112
bin	8.45856e-05	2157
bin	8.544e-05	2031
bin	8.62944e-05	1942
bin	8.71488e-05	2003
bin	8.80032e-05	1975
bin	8.88576e-05	1978
bin	8.9712e-05	1928
bin	9.05664e-05	1928
bin	9.14208e-05	1916
bin	9.22752e-05	2044
bin	9.31296e-05	1953
bin	9.3984e-05	1997
bin	9.48384e-05	1974
bin	9.56928e-05	1936
bin	9.65472e-05	1925
bin	9.74016e-05	1946
bin	9.8256e-05	1856
bin	9.91104e-05	1875
bin	9.99648e-05	1899
bin	0.0001008192	1874
bin	0.0001016736	1798
bin	0.000102528	1847
bin	0.0001033824	1794
bin	0.0001042368	1789
bin	0.0001050912	1791
bin	0.0001059456	1789
bin	0.0001068	1729
bin	0.0001076544	1658
bin	0.0001085088	1656
bin	0.0001093632	1653
bin	0.0001102176	1650
bin	0.000111072	1647
bin	0.0001119264	1594
bin	0.0001127808	1555
bin	0.0001136352	1619
bin	0.0001144896	1563
bin	0.000115344	1509
bin	0.0001161984	1486
bin	0.0001170528	1509
bin	0.0001179072	1533
bin	0.0001187616	1496
bin	0.000119616	1455
bin	0.0001204704	1482
bin	0.0001213248	1520
bin	0.0001221792	1492
bin	0.0001230336	1433
bin	0.000123888	1425
bin	0.0001247424	1423
bin	0.0001255968	1491
bin	0.0001264512	1470
bin	0.0001273056	1438
bin	0.00012816	1416
bin	0.0001290144	1387
bin	0.0001298688	1344
bin	0.0001307232	1305
bin	0.0001315776	1333
bin	0.000132432	1356
bin	0.0001332864	1316
bin	0.0001341408	1289
bin	0.0001349952	1246
bin	0.0001358496	1248
bin	0.000136704	1271
bin	0.0001375584	1188
bin	0.0001384128	1223
bin	0.0001392672	1215
bin	0.0001401216	1236
bin	0.000140976	1205
bin	0.0001418304	1243
bin	0.0001426848	1224
bin	0.0001435392	1277
bin	0.0001443936	1230
bin	0.000145248	1244
bin	0.0001461024	1240
bin	0.0001469568	1222
bin	0.0001478112	1205
bin	0.0001486656	1191
bin	0.00014952	1201
bin	0.0001503744	1182
bin	0.0001512288	1193
bin	0.0001520832	1234
bin	0.0001529376	1191
bin	0.000153792	1263
bin	0.0001546464	1195
bin	0.0001555008	1223
bin	0.0001563552	1178
bin	0.0001572096	1138
bin	0.000158064	1172
bin	0.0001589184	1145
bin	0.0001597728	1116
bin	0.0001606272	1089
bin	0.0001614816	1085
bin	0.000162336	1133
bin	0.0001631904	1041
bin	0.0001640448	1110
bin	0.0001648992	1096
bin	0.0001657536	1097
bin	0.000166608	1102
bin	0.0001674624	1100
bin	0.0001683168	1103
bin	0.0001691712	1123
bin	0.0001700256	1143
bin	0.00017088	1105
bin	0.0001717344	1137
bin	0.0001725888	1133
bin	0.0001734432	1171
bin	0.0001742976	1128
bin	0.000175152	1171
bin	0.0001760064	1119
bin	0.0001768608	1081
bin	0.0001777152	1127
bin	0.0001785696	1098
bin	0.000179424	1135
bin	0.0001802784	1101
bin	0.0001811328	1078
bin	0.0001819872	1083
bin	0.0001828416	1046
bin	0.000183696	1072
bin	0.0001845504	1042
bin	0.0001854048	1084
bin	0.0001862592	1030
bin	0.0001871136	1047
bin	0.000187968	1064
bin	0.0001888224	1109
bin	0.0001896768	1056
bin	0.0001905312	1065
bin	0.0001913856	1084
bin	0.00019224	1095
bin	0.0001930944	1114
bin	0.0001939488	1152
bin	0.0001948032	1164
bin	0.0001956576	1106
bin	0.000196512	1099
bin	0.0001973664	1043
bin	0.0001982208	1067
bin	0.0001990752	1089
bin	0.0001999296	1102
bin	0.000200784	1095
bin	0.0002016384	1149
bin	0.0002024928	1131
bin	0.0002033472	1141
bin	0.0002042016	1143
bin	0.000205056	1119
bin	0.0002059104	1150
bin	0.0002067648	1114
bin	0.0002076192	1094
bin	0.0002084736	1041
bin	0.000209328	1042
bin	0.0002101824	1000
bin	0.0002110368	1040
bin	0.0002118912	1074
bin	0.0002127456	1065
bin	0.0002136	1084
bin	0.0002144544	1047
bin	0.0002153088	1061
bin	0.0002161632	1070
bin	0.0002170176	1052
bin	0.000217872	1108
bin	0.0002187264	1075
bin	0.0002195808	1071
bin	0.0002204352	1107
bin	0.0002212896	1117
bin	0.000222144	1106
bin	0.0002229984	1143
bin	0.0002238528	1094
bin	0.0002247072	1059
bin	0.0002255616	1117
bin	0.000226416	1073
bin	0.0002272704	1142
bin	0.0002281248	1077
bin	0.0002289792	1036
bin	0.0002298336	1050
bin	0.000230688	1089
bin	0.0002315424	1074
bin	0.0002323968	1024
bin	0.0002332512	1074
bin	0.0002341056	1063
bin	0.00023496	1043
bin	0.0002358144	1078
bin	0.0002366688	1040
bin	0.0002375232	1119
bin	0.0002383776	1081
bin	0.000239232	1135
bin	0.0002400864	1148
bin	0.0002409408	1141
bin	0.0002417952	1076
bin	0.0002426496	1117
bin	0.000243504	1092
bin	0.0002443584	1104
bin	0.0002452128	1062
bin	0.0002460672	1070
bin	0.0002469216	1114
bin	0.000247776	1061
bin	0.0002486304	1076
bin	0.0002494848	1074
bin	0.0002503392	1091
bin	0.0002511936	1068
bin	0.000252048	1020
bin	0.0002529024	1072
bin	0.0002537568	1097
bin	0.0002546112	1044
bin	0.0002554656	1030
bin	0.00025632	1009
bin	0.0002571744	1046
bin	0.0002580288	1051
bin	0.0002588832	1023
bin	0.0002597376	1026
bin	0.000260592	1103
bin	0.0002614464	1056
bin	0.0002623008	1038
bin	0.0002631552	1058
bin	0.0002640096	1010
bin	0.000264864	988
bin	0.0002657184	1025
bin	0.0002665728	1060
bin	0.0002674272	1008
bin	0.0002682816	969
bin	0.000269136	1016
bin	0.0002699904	1017
bin	0.0002708448	1028
bin	0.0002716992	1008
bin	0.0002725536	1014
bin	0.000273408	1047
bin	0.0002742624	974
bin	0.0002751168	953
bin	0.0002759712	945
bin	0.0002768256	971
bin	0.00027768	930
bin	0.0002785344	965
bin	0.0002793888	945
bin	0.0002802432	946
bin	0.0002810976	912
bin	0.000281952	934
bin	0.0002828064	955
bin	0.0002836608	910
bin	0.0002845152	961
bin	0.0002853696	940
bin	0.000286224	955
bin	0.0002870784	940
bin	0.0002879328	1023
bin	0.0002887872	973
bin	0.0002896416	959
bin	0.000290496	919
bin	0.0002913504	974
bin	0.0002922048	975
bin	0.0002930592	984
bin	0.0002939136	954
bin	0.000294768	922
bin	0.0002956224	937
bin	0.0002964768	925
bin	0.0002973312	961
bin	0.0002981856	895
bin	0.00029904	905
bin	0.0002998944	957
bin	0.0003007488	914
bin	0.0003016032	922
bin	0.0003024576	947
bin	0.000303312	967
bin	0.0003041664	1030
bin	0.0003050208	977
bin	0.0003058752	981
bin	0.0003067296	913
bin	0.000307584	957
bin	0.0003084384	981
bin	0.0003092928	988
bin	0.0003101472	992
bin	0.0003110016	995
bin	0.000311856	991
bin	0.0003127104	956
bin	0.0003135648	968
bin	0.0003144192	935
bin	0.0003152736	963
bin	0.000316128	965
bin	0.0003169824	991
bin	0.0003178368	1014
bin	0.0003186912	1013
bin	0.0003195456	1005
bin	0.0003204	950
bin	0.0003212544	963
bin	0.0003221088	952
bin	0.0003229632	974
bin	0.0003238176	944
bin	0.000324672	887
bin	0.0003255264	906
bin	0.0003263808	911
bin	0.0003272352	859
bin	0.0003280896	885
bin	0.000328944	871
bin	0.0003297984	867
bin	0.0003306528	878
bin	0.0003315072	915
bin	0.0003323616	826
bin	0.000333216	852
bin	0.0003340704	828
bin	0.0003349248	880
bin	0.0003357792	907
bin	0.0003366336	834
bin	0.000337488	869
bin	0.0003383424	855
bin	0.0003391968	928
bin	0.0003400512	950
bin	0.0003409056	943
bin	0.00034176	887
bin	0.0003426144	854
bin	0.0003434688	867
bin	0.0003443232	892
bin	0.0003451776	886
bin	0.000346032	831
bin	0.0003468864	901
bin	0.0003477408	873
bin	0.0003485952	877
bin	0.0003494496	899
bin	0.000350304	904
bin	0.0003511584	887
bin	0.0003520128	875
bin	0.0003528672	888
bin	0.0003537216	873
bin	0.000354576	842
bin	0.0003554304	779
bin	0.0003562848	782
bin	0.0003571392	764
bin	0.0003579936	800
bin	0.000358848	805
bin	0.0003597024	858
bin	0.0003605568	863
bin	0.0003614112	835
bin	0.0003622656	852
bin	0.00036312	914
bin	0.0003639744	915
bin	0.0003648288	897
bin	0.0003656832	886
bin	0.0003665376	951
bin	0.000367392	955
bin	0.0003682464	940
bin	0.0003691008	897
bin	0.0003699552	965
bin	0.0003708096	953
bin	0.000371664	930
bin	0.0003725184	887
bin	0.0003733728	925
bin	0.0003742272	919
bin	0.0003750816	942
bin	0.000375936	930
bin	0.0003767904	882
bin	0.0003776448	894
bin	0.0003784992	917
bin	0.0003793536	924
bin	0.000380208	934
bin	0.0003810624	898
bin	0.0003819168	963
bin	0.0003827712	872
bin	0.0003836256	877
bin	0.00038448	894
bin	0.0003853344	888
bin	0.0003861888	921
bin	0.0003870432	924
bin	0.0003878976	952
bin	0.000388752	886
bin	0.0003896064	939
bin	0.0003904608	890
bin	0.0003913152	895
bin	0.0003921696	908
bin	0.000393024	945
bin	0.0003938784	938
bin	0.0003947328	890
bin	0.0003955872	900
bin	0.0003964416	893
bin	0.000397296	921
bin	0.0003981504	870
bin	0.0003990048	909
bin	0.0003998592	914
bin	0.0004007136	911
bin	0.000401568	883
bin	0.0004024224	905
bin	0.0004032768	895
bin	0.0004041312	834
bin	0.0004049856	824
bin	0.00040584	836
bin	0.0004066944	851
bin	0.0004075488	852
bin	0.0004084032	847
bin	0.0004092576	813
bin	0.000410112	837
bin	0.0004109664	838
bin	0.0004118208	853
bin	0.0004126752	826
bin	0.0004135296	853
bin	0.000414384	816
bin	0.0004152384	858
bin	0.0004160928	843
bin	0.0004169472	796
bin	0.0004178016	802
bin	0.000418656	821
bin	0.0004195104	845
bin	0.0004203648	814
bin	0.0004212192	850
bin	0.0004220736	868
bin	0.000422928	883
bin	0.0004237824	844
bin	0.0004246368	848
bin	0.0004254912	819
bin	0.0004263456	849
bin	0.0004272	4998486
