version 2
run Permutation-39-20120710-22:49:45-28119
attr alg 3
attr buf 8
attr configname Permutation
attr datetime 20120710-22:49:45
attr delta 1
attr experiment Permutation
attr ext true
attr inifile altro.ini
attr iterationvars "$buf=8, $ext=true, $ofedge=2, $delta=1, $alg=3"
attr iterationvars2 "$buf=8, $ext=true, $ofedge=2, $delta=1, $alg=3, $repetition=0"
attr measurement "$buf=8, $ext=true, $ofedge=2, $delta=1, $alg=3"
attr network Torus3d_bub
attr ofedge 2
attr processid 28119
attr repetition 0
attr replication #0
attr resultdir altro-results
attr runnumber 39
attr seedset 39

scalar . 	alg 	3
scalar . 	buf 	8
scalar . 	delta 	1
scalar . 	ofedge 	2
scalar Torus3d_bub.timer 	#endTime 	0.00335117632857
scalar Torus3d_bub.timer 	#totalHops 	88069381
scalar Torus3d_bub.timer 	#totalPacks 	6291456
scalar Torus3d_bub.timer 	#totalDerouted 	2160652
scalar Torus3d_bub.timer 	#totalOutFlanked 	1292445
scalar Torus3d_bub.timer 	#totalCQRed 	868207
scalar Torus3d_bub.timer 	#LB 	0.000786432
scalar Torus3d_bub.timer 	#ratio 	0.23467341700148
statistic Torus3d_bub.timer 	"Hop Times"
field count 6291456
field mean 8.3385202189953e-05
field stddev 8.3131687133039e-05
field sum 524.61433062919
field sqrsum 0.08722454623902
field min 4.03791666e-07
field max 0.001777765333333
bin	-INF	0
bin	0	0
bin	7.12e-08	0
bin	1.424e-07	0
bin	2.136e-07	0
bin	2.848e-07	0
bin	3.56e-07	26
bin	4.272e-07	672
bin	4.984e-07	2168
bin	5.696e-07	3233
bin	6.408e-07	4462
bin	7.12e-07	5845
bin	7.832e-07	7395
bin	8.544e-07	8858
bin	9.256e-07	10806
bin	9.968e-07	12460
bin	1.068e-06	14416
bin	1.1392e-06	16690
bin	1.2104e-06	19153
bin	1.2816e-06	21957
bin	1.3528e-06	24534
bin	1.424e-06	27818
bin	1.4952e-06	30662
bin	1.5664e-06	33532
bin	1.6376e-06	36207
bin	1.7088e-06	37993
bin	1.78e-06	39737
bin	1.8512e-06	40199
bin	1.9224e-06	39916
bin	1.9936e-06	39069
bin	2.0648e-06	37594
bin	2.136e-06	36108
bin	2.2072e-06	34397
bin	2.2784e-06	31948
bin	2.3496e-06	30179
bin	2.4208e-06	27874
bin	2.492e-06	26257
bin	2.5632e-06	24401
bin	2.6344e-06	22756
bin	2.7056e-06	20899
bin	2.7768e-06	19511
bin	2.848e-06	18001
bin	2.9192e-06	17107
bin	2.9904e-06	16070
bin	3.0616e-06	14915
bin	3.1328e-06	13910
bin	3.204e-06	12989
bin	3.2752e-06	12303
bin	3.3464e-06	11885
bin	3.4176e-06	11170
bin	3.4888e-06	10589
bin	3.56e-06	9922
bin	3.6312e-06	9490
bin	3.7024e-06	9141
bin	3.7736e-06	8756
bin	3.8448e-06	8462
bin	3.916e-06	8148
bin	3.9872e-06	7843
bin	4.0584e-06	7430
bin	4.1296e-06	7197
bin	4.2008e-06	7082
bin	4.272e-06	6834
bin	4.3432e-06	6487
bin	4.4144e-06	6328
bin	4.4856e-06	6083
bin	4.5568e-06	6024
bin	4.628e-06	5874
bin	4.6992e-06	5713
bin	4.7704e-06	5614
bin	4.8416e-06	5417
bin	4.9128e-06	5275
bin	4.984e-06	5260
bin	5.0552e-06	5219
bin	5.1264e-06	5144
bin	5.1976e-06	4957
bin	5.2688e-06	4871
bin	5.34e-06	4712
bin	5.4112e-06	4639
bin	5.4824e-06	4642
bin	5.5536e-06	4533
bin	5.6248e-06	4449
bin	5.696e-06	4475
bin	5.7672e-06	4492
bin	5.8384e-06	4344
bin	5.9096e-06	4325
bin	5.9808e-06	4227
bin	6.052e-06	4231
bin	6.1232e-06	4190
bin	6.1944e-06	4125
bin	6.2656e-06	4147
bin	6.3368e-06	4015
bin	6.408e-06	3849
bin	6.4792e-06	3985
bin	6.5504e-06	3862
bin	6.6216e-06	3925
bin	6.6928e-06	3907
bin	6.764e-06	3844
bin	6.8352e-06	3769
bin	6.9064e-06	3760
bin	6.9776e-06	3773
bin	7.0488e-06	3710
bin	7.12e-06	3695
bin	7.1912e-06	3633
bin	7.2624e-06	3656
bin	7.3336e-06	3539
bin	7.4048e-06	3543
bin	7.476e-06	3499
bin	7.5472e-06	3477
bin	7.6184e-06	3380
bin	7.6896e-06	3346
bin	7.7608e-06	3348
bin	7.832e-06	3362
bin	7.9032e-06	3294
bin	7.9744e-06	3251
bin	8.0456e-06	3350
bin	8.1168e-06	3171
bin	8.188e-06	3111
bin	8.2592e-06	3147
bin	8.3304e-06	3150
bin	8.4016e-06	3057
bin	8.4728e-06	3141
bin	8.544e-06	3120
bin	8.6152e-06	3007
bin	8.6864e-06	3022
bin	8.7576e-06	2971
bin	8.8288e-06	2963
bin	8.9e-06	2931
bin	8.9712e-06	2978
bin	9.0424e-06	2948
bin	9.1136e-06	2965
bin	9.1848e-06	2974
bin	9.256e-06	2872
bin	9.3272e-06	2878
bin	9.3984e-06	2912
bin	9.4696e-06	2824
bin	9.5408e-06	2810
bin	9.612e-06	2827
bin	9.6832e-06	2804
bin	9.7544e-06	2767
bin	9.8256e-06	2824
bin	9.8968e-06	2692
bin	9.968e-06	2745
bin	1.00392e-05	2771
bin	1.01104e-05	2766
bin	1.01816e-05	2721
bin	1.02528e-05	2708
bin	1.0324e-05	2692
bin	1.03952e-05	2647
bin	1.04664e-05	2710
bin	1.05376e-05	2668
bin	1.06088e-05	2586
bin	1.068e-05	2618
bin	1.07512e-05	2635
bin	1.08224e-05	2550
bin	1.08936e-05	2584
bin	1.09648e-05	2525
bin	1.1036e-05	2559
bin	1.11072e-05	2620
bin	1.11784e-05	2490
bin	1.12496e-05	2558
bin	1.13208e-05	2553
bin	1.1392e-05	2505
bin	1.14632e-05	2499
bin	1.15344e-05	2518
bin	1.16056e-05	2501
bin	1.16768e-05	2422
bin	1.1748e-05	2494
bin	1.18192e-05	2412
bin	1.18904e-05	2466
bin	1.19616e-05	2417
bin	1.20328e-05	2469
bin	1.2104e-05	2474
bin	1.21752e-05	2323
bin	1.22464e-05	2390
bin	1.23176e-05	2353
bin	1.23888e-05	2339
bin	1.246e-05	2362
bin	1.25312e-05	2346
bin	1.26024e-05	2421
bin	1.26736e-05	2386
bin	1.27448e-05	2330
bin	1.2816e-05	2389
bin	1.28872e-05	2441
bin	1.29584e-05	2377
bin	1.30296e-05	2444
bin	1.31008e-05	2336
bin	1.3172e-05	2443
bin	1.32432e-05	2376
bin	1.33144e-05	2318
bin	1.33856e-05	2314
bin	1.34568e-05	2353
bin	1.3528e-05	2347
bin	1.35992e-05	2424
bin	1.36704e-05	2390
bin	1.37416e-05	2326
bin	1.38128e-05	2341
bin	1.3884e-05	2380
bin	1.39552e-05	2312
bin	1.40264e-05	2306
bin	1.40976e-05	2377
bin	1.41688e-05	2281
bin	1.424e-05	2315
bin	1.43112e-05	2258
bin	1.43824e-05	2301
bin	1.44536e-05	2333
bin	1.45248e-05	2314
bin	1.4596e-05	2338
bin	1.46672e-05	2283
bin	1.47384e-05	2255
bin	1.48096e-05	2263
bin	1.48808e-05	2142
bin	1.4952e-05	2217
bin	1.50232e-05	2125
bin	1.50944e-05	2142
bin	1.51656e-05	2208
bin	1.52368e-05	2148
bin	1.5308e-05	2187
bin	1.53792e-05	2239
bin	1.54504e-05	2187
bin	1.55216e-05	2195
bin	1.55928e-05	2185
bin	1.5664e-05	2210
bin	1.57352e-05	2154
bin	1.58064e-05	2205
bin	1.58776e-05	2186
bin	1.59488e-05	2109
bin	1.602e-05	2021
bin	1.60912e-05	2208
bin	1.61624e-05	2225
bin	1.62336e-05	2186
bin	1.63048e-05	2225
bin	1.6376e-05	2114
bin	1.64472e-05	2242
bin	1.65184e-05	2232
bin	1.65896e-05	2235
bin	1.66608e-05	2155
bin	1.6732e-05	2146
bin	1.68032e-05	2149
bin	1.68744e-05	2197
bin	1.69456e-05	2214
bin	1.70168e-05	2180
bin	1.7088e-05	2184
bin	1.71592e-05	2196
bin	1.72304e-05	2235
bin	1.73016e-05	2135
bin	1.73728e-05	2174
bin	1.7444e-05	2191
bin	1.75152e-05	2210
bin	1.75864e-05	2161
bin	1.76576e-05	2160
bin	1.77288e-05	2165
bin	1.78e-05	2196
bin	1.78712e-05	2254
bin	1.79424e-05	2175
bin	1.80136e-05	2227
bin	1.80848e-05	2093
bin	1.8156e-05	2173
bin	1.82272e-05	2162
bin	1.82984e-05	2149
bin	1.83696e-05	2175
bin	1.84408e-05	2120
bin	1.8512e-05	2140
bin	1.85832e-05	2175
bin	1.86544e-05	2199
bin	1.87256e-05	2170
bin	1.87968e-05	2114
bin	1.8868e-05	2136
bin	1.89392e-05	2125
bin	1.90104e-05	2061
bin	1.90816e-05	2122
bin	1.91528e-05	2110
bin	1.9224e-05	2048
bin	1.92952e-05	2157
bin	1.93664e-05	2123
bin	1.94376e-05	2109
bin	1.95088e-05	2073
bin	1.958e-05	2155
bin	1.96512e-05	2040
bin	1.97224e-05	1998
bin	1.97936e-05	2097
bin	1.98648e-05	2050
bin	1.9936e-05	2002
bin	2.00072e-05	2031
bin	2.00784e-05	2083
bin	2.01496e-05	2030
bin	2.02208e-05	2124
bin	2.0292e-05	1996
bin	2.03632e-05	2104
bin	2.04344e-05	2142
bin	2.05056e-05	2065
bin	2.05768e-05	2075
bin	2.0648e-05	2082
bin	2.07192e-05	2005
bin	2.07904e-05	2139
bin	2.08616e-05	2052
bin	2.09328e-05	2091
bin	2.1004e-05	2050
bin	2.10752e-05	2074
bin	2.11464e-05	2074
bin	2.12176e-05	2140
bin	2.12888e-05	2094
bin	2.136e-05	2038
bin	2.14312e-05	1992
bin	2.15024e-05	2006
bin	2.15736e-05	2084
bin	2.16448e-05	2032
bin	2.1716e-05	2043
bin	2.17872e-05	2009
bin	2.18584e-05	2042
bin	2.19296e-05	2031
bin	2.20008e-05	2087
bin	2.2072e-05	2080
bin	2.21432e-05	2024
bin	2.22144e-05	2064
bin	2.22856e-05	2099
bin	2.23568e-05	2137
bin	2.2428e-05	2104
bin	2.24992e-05	2096
bin	2.25704e-05	2095
bin	2.26416e-05	2032
bin	2.27128e-05	2071
bin	2.2784e-05	2001
bin	2.28552e-05	1983
bin	2.29264e-05	2171
bin	2.29976e-05	2111
bin	2.30688e-05	2092
bin	2.314e-05	2133
bin	2.32112e-05	2111
bin	2.32824e-05	2130
bin	2.33536e-05	2095
bin	2.34248e-05	2020
bin	2.3496e-05	2075
bin	2.35672e-05	2082
bin	2.36384e-05	1966
bin	2.37096e-05	2009
bin	2.37808e-05	2040
bin	2.3852e-05	2117
bin	2.39232e-05	2082
bin	2.39944e-05	2041
bin	2.40656e-05	1981
bin	2.41368e-05	1994
bin	2.4208e-05	2024
bin	2.42792e-05	1983
bin	2.43504e-05	1970
bin	2.44216e-05	1945
bin	2.44928e-05	2087
bin	2.4564e-05	1968
bin	2.46352e-05	2026
bin	2.47064e-05	1968
bin	2.47776e-05	2037
bin	2.48488e-05	2010
bin	2.492e-05	2134
bin	2.49912e-05	2007
bin	2.50624e-05	2045
bin	2.51336e-05	2044
bin	2.52048e-05	2004
bin	2.5276e-05	2007
bin	2.53472e-05	1979
bin	2.54184e-05	1970
bin	2.54896e-05	1950
bin	2.55608e-05	1933
bin	2.5632e-05	1885
bin	2.57032e-05	1926
bin	2.57744e-05	2016
bin	2.58456e-05	2038
bin	2.59168e-05	1936
bin	2.5988e-05	1930
bin	2.60592e-05	1925
bin	2.61304e-05	2011
bin	2.62016e-05	1981
bin	2.62728e-05	1965
bin	2.6344e-05	1981
bin	2.64152e-05	2018
bin	2.64864e-05	1946
bin	2.65576e-05	2015
bin	2.66288e-05	1974
bin	2.67e-05	1955
bin	2.67712e-05	1934
bin	2.68424e-05	1939
bin	2.69136e-05	1942
bin	2.69848e-05	1931
bin	2.7056e-05	1969
bin	2.71272e-05	1893
bin	2.71984e-05	1917
bin	2.72696e-05	1901
bin	2.73408e-05	1925
bin	2.7412e-05	2013
bin	2.74832e-05	2052
bin	2.75544e-05	2007
bin	2.76256e-05	2022
bin	2.76968e-05	1974
bin	2.7768e-05	2072
bin	2.78392e-05	2017
bin	2.79104e-05	2022
bin	2.79816e-05	1960
bin	2.80528e-05	1933
bin	2.8124e-05	1951
bin	2.81952e-05	1948
bin	2.82664e-05	1949
bin	2.83376e-05	2040
bin	2.84088e-05	2021
bin	2.848e-05	2013
bin	2.85512e-05	2016
bin	2.86224e-05	1950
bin	2.86936e-05	1938
bin	2.87648e-05	1891
bin	2.8836e-05	1966
bin	2.89072e-05	2015
bin	2.89784e-05	1952
bin	2.90496e-05	1853
bin	2.91208e-05	1972
bin	2.9192e-05	1917
bin	2.92632e-05	1942
bin	2.93344e-05	1908
bin	2.94056e-05	1899
bin	2.94768e-05	1929
bin	2.9548e-05	1938
bin	2.96192e-05	2009
bin	2.96904e-05	1998
bin	2.97616e-05	1900
bin	2.98328e-05	1953
bin	2.9904e-05	1941
bin	2.99752e-05	1933
bin	3.00464e-05	1972
bin	3.01176e-05	2012
bin	3.01888e-05	1997
bin	3.026e-05	1936
bin	3.03312e-05	1939
bin	3.04024e-05	1937
bin	3.04736e-05	1957
bin	3.05448e-05	1962
bin	3.0616e-05	1902
bin	3.06872e-05	1974
bin	3.07584e-05	1922
bin	3.08296e-05	1909
bin	3.09008e-05	1857
bin	3.0972e-05	1942
bin	3.10432e-05	1989
bin	3.11144e-05	1958
bin	3.11856e-05	1956
bin	3.12568e-05	2030
bin	3.1328e-05	1924
bin	3.13992e-05	1979
bin	3.14704e-05	2027
bin	3.15416e-05	2031
bin	3.16128e-05	2003
bin	3.1684e-05	2093
bin	3.17552e-05	2069
bin	3.18264e-05	2055
bin	3.18976e-05	1954
bin	3.19688e-05	2035
bin	3.204e-05	2021
bin	3.21112e-05	2032
bin	3.21824e-05	1919
bin	3.22536e-05	1963
bin	3.23248e-05	2004
bin	3.2396e-05	2060
bin	3.24672e-05	2013
bin	3.25384e-05	2000
bin	3.26096e-05	2029
bin	3.26808e-05	2052
bin	3.2752e-05	2036
bin	3.28232e-05	2006
bin	3.28944e-05	2067
bin	3.29656e-05	2004
bin	3.30368e-05	1952
bin	3.3108e-05	1952
bin	3.31792e-05	1969
bin	3.32504e-05	1899
bin	3.33216e-05	1973
bin	3.33928e-05	1885
bin	3.3464e-05	2001
bin	3.35352e-05	1919
bin	3.36064e-05	1883
bin	3.36776e-05	1988
bin	3.37488e-05	1898
bin	3.382e-05	1884
bin	3.38912e-05	1899
bin	3.39624e-05	1942
bin	3.40336e-05	1932
bin	3.41048e-05	1993
bin	3.4176e-05	1998
bin	3.42472e-05	2008
bin	3.43184e-05	1961
bin	3.43896e-05	1976
bin	3.44608e-05	1888
bin	3.4532e-05	1916
bin	3.46032e-05	1873
bin	3.46744e-05	1910
bin	3.47456e-05	1897
bin	3.48168e-05	1840
bin	3.4888e-05	1896
bin	3.49592e-05	1901
bin	3.50304e-05	1857
bin	3.51016e-05	1902
bin	3.51728e-05	1905
bin	3.5244e-05	1799
bin	3.53152e-05	1796
bin	3.53864e-05	1918
bin	3.54576e-05	1872
bin	3.55288e-05	1930
bin	3.56e-05	4204522
statistic Torus3d_bub.timer 	"Life Times"
field count 6291456
field mean 0.0010597126561062
field stddev 0.0008040556158672
field sum 6667.1355485353
field sqrsum 11.132707762298
field min 6.05333218e-07
field max 0.00321880132857
bin	-INF	0
bin	0	14
bin	8.544e-07	281
bin	1.7088e-06	945
bin	2.5632e-06	2060
bin	3.4176e-06	3280
bin	4.272e-06	4412
bin	5.1264e-06	5689
bin	5.9808e-06	7096
bin	6.8352e-06	8338
bin	7.6896e-06	9890
bin	8.544e-06	11333
bin	9.3984e-06	13064
bin	1.02528e-05	14805
bin	1.11072e-05	15925
bin	1.19616e-05	17085
bin	1.2816e-05	18127
bin	1.36704e-05	19390
bin	1.45248e-05	20341
bin	1.53792e-05	21571
bin	1.62336e-05	22299
bin	1.7088e-05	23515
bin	1.79424e-05	24311
bin	1.87968e-05	25475
bin	1.96512e-05	26666
bin	2.05056e-05	27790
bin	2.136e-05	29135
bin	2.22144e-05	30639
bin	2.30688e-05	32121
bin	2.39232e-05	33518
bin	2.47776e-05	35080
bin	2.5632e-05	34793
bin	2.64864e-05	33908
bin	2.73408e-05	32653
bin	2.81952e-05	30920
bin	2.90496e-05	29373
bin	2.9904e-05	27801
bin	3.07584e-05	25532
bin	3.16128e-05	23359
bin	3.24672e-05	21764
bin	3.33216e-05	20048
bin	3.4176e-05	18001
bin	3.50304e-05	16220
bin	3.58848e-05	14620
bin	3.67392e-05	13306
bin	3.75936e-05	12428
bin	3.8448e-05	11740
bin	3.93024e-05	11219
bin	4.01568e-05	10695
bin	4.10112e-05	10201
bin	4.18656e-05	9971
bin	4.272e-05	9711
bin	4.35744e-05	9201
bin	4.44288e-05	9043
bin	4.52832e-05	8994
bin	4.61376e-05	8814
bin	4.6992e-05	8600
bin	4.78464e-05	8529
bin	4.87008e-05	8437
bin	4.95552e-05	8272
bin	5.04096e-05	8250
bin	5.1264e-05	7901
bin	5.21184e-05	7607
bin	5.29728e-05	7372
bin	5.38272e-05	7018
bin	5.46816e-05	6662
bin	5.5536e-05	6585
bin	5.63904e-05	6315
bin	5.72448e-05	6115
bin	5.80992e-05	5789
bin	5.89536e-05	5487
bin	5.9808e-05	5304
bin	6.06624e-05	5212
bin	6.15168e-05	4916
bin	6.23712e-05	4883
bin	6.32256e-05	4776
bin	6.408e-05	4677
bin	6.49344e-05	4612
bin	6.57888e-05	4435
bin	6.66432e-05	4491
bin	6.74976e-05	4511
bin	6.8352e-05	4419
bin	6.92064e-05	4318
bin	7.00608e-05	4377
bin	7.09152e-05	4286
bin	7.17696e-05	4198
bin	7.2624e-05	4182
bin	7.34784e-05	4194
bin	7.43328e-05	4133
bin	7.51872e-05	4086
bin	7.60416e-05	4116
bin	7.6896e-05	4105
bin	7.77504e-05	3979
bin	7.86048e-05	3939
bin	7.94592e-05	3847
bin	8.03136e-05	3714
bin	8.1168e-05	3756
bin	8.20224e-05	3720
bin	8.28768e-05	3458
bin	8.37312e-05	3545
bin	8.45856e-05	3406
bin	8.544e-05	3323
bin	8.62944e-05	3246
bin	8.71488e-05	3199
bin	8.80032e-05	3261
bin	8.88576e-05	3203
bin	8.9712e-05	3074
bin	9.05664e-05	3093
bin	9.14208e-05	3114
bin	9.22752e-05	3063
bin	9.31296e-05	3074
bin	9.3984e-05	3024
bin	9.48384e-05	3040
bin	9.56928e-05	3026
bin	9.65472e-05	3160
bin	9.74016e-05	3025
bin	9.8256e-05	3041
bin	9.91104e-05	3076
bin	9.99648e-05	3047
bin	0.0001008192	3064
bin	0.0001016736	2931
bin	0.000102528	2965
bin	0.0001033824	3027
bin	0.0001042368	3030
bin	0.0001050912	2897
bin	0.0001059456	2833
bin	0.0001068	2793
bin	0.0001076544	2886
bin	0.0001085088	2738
bin	0.0001093632	2627
bin	0.0001102176	2683
bin	0.000111072	2624
bin	0.0001119264	2615
bin	0.0001127808	2695
bin	0.0001136352	2596
bin	0.0001144896	2593
bin	0.000115344	2563
bin	0.0001161984	2499
bin	0.0001170528	2516
bin	0.0001179072	2468
bin	0.0001187616	2577
bin	0.000119616	2485
bin	0.0001204704	2554
bin	0.0001213248	2531
bin	0.0001221792	2483
bin	0.0001230336	2504
bin	0.000123888	2504
bin	0.0001247424	2584
bin	0.0001255968	2534
bin	0.0001264512	2637
bin	0.0001273056	2568
bin	0.00012816	2606
bin	0.0001290144	2489
bin	0.0001298688	2504
bin	0.0001307232	2377
bin	0.0001315776	2389
bin	0.000132432	2342
bin	0.0001332864	2362
bin	0.0001341408	2366
bin	0.0001349952	2290
bin	0.0001358496	2286
bin	0.000136704	2243
bin	0.0001375584	2249
bin	0.0001384128	2172
bin	0.0001392672	2164
bin	0.0001401216	2145
bin	0.000140976	2180
bin	0.0001418304	2269
bin	0.0001426848	2272
bin	0.0001435392	2255
bin	0.0001443936	2294
bin	0.000145248	2163
bin	0.0001461024	2252
bin	0.0001469568	2250
bin	0.0001478112	2232
bin	0.0001486656	2277
bin	0.00014952	2230
bin	0.0001503744	2156
bin	0.0001512288	2259
bin	0.0001520832	2197
bin	0.0001529376	2282
bin	0.000153792	2270
bin	0.0001546464	2215
bin	0.0001555008	2195
bin	0.0001563552	2150
bin	0.0001572096	2149
bin	0.000158064	2108
bin	0.0001589184	2067
bin	0.0001597728	1931
bin	0.0001606272	1979
bin	0.0001614816	2057
bin	0.000162336	1973
bin	0.0001631904	1956
bin	0.0001640448	1911
bin	0.0001648992	1905
bin	0.0001657536	1901
bin	0.000166608	1924
bin	0.0001674624	1828
bin	0.0001683168	1829
bin	0.0001691712	1911
bin	0.0001700256	1998
bin	0.00017088	1980
bin	0.0001717344	2074
bin	0.0001725888	1997
bin	0.0001734432	2033
bin	0.0001742976	2084
bin	0.000175152	2037
bin	0.0001760064	2016
bin	0.0001768608	2087
bin	0.0001777152	2083
bin	0.0001785696	2004
bin	0.000179424	1996
bin	0.0001802784	2019
bin	0.0001811328	2030
bin	0.0001819872	2004
bin	0.0001828416	1946
bin	0.000183696	1939
bin	0.0001845504	1866
bin	0.0001854048	1879
bin	0.0001862592	1848
bin	0.0001871136	1811
bin	0.000187968	1860
bin	0.0001888224	1903
bin	0.0001896768	1848
bin	0.0001905312	1894
bin	0.0001913856	1892
bin	0.00019224	1812
bin	0.0001930944	1909
bin	0.0001939488	1870
bin	0.0001948032	1979
bin	0.0001956576	1961
bin	0.000196512	1885
bin	0.0001973664	1990
bin	0.0001982208	1955
bin	0.0001990752	1939
bin	0.0001999296	1986
bin	0.000200784	1926
bin	0.0002016384	1968
bin	0.0002024928	1892
bin	0.0002033472	1923
bin	0.0002042016	1914
bin	0.000205056	1820
bin	0.0002059104	1884
bin	0.0002067648	1782
bin	0.0002076192	1788
bin	0.0002084736	1802
bin	0.000209328	1885
bin	0.0002101824	1795
bin	0.0002110368	1849
bin	0.0002118912	1925
bin	0.0002127456	1861
bin	0.0002136	1788
bin	0.0002144544	1854
bin	0.0002153088	1893
bin	0.0002161632	1788
bin	0.0002170176	1827
bin	0.000217872	1796
bin	0.0002187264	1817
bin	0.0002195808	1817
bin	0.0002204352	1891
bin	0.0002212896	1847
bin	0.000222144	1842
bin	0.0002229984	1832
bin	0.0002238528	1858
bin	0.0002247072	1862
bin	0.0002255616	1817
bin	0.000226416	1794
bin	0.0002272704	1772
bin	0.0002281248	1813
bin	0.0002289792	1780
bin	0.0002298336	1779
bin	0.000230688	1853
bin	0.0002315424	1894
bin	0.0002323968	1862
bin	0.0002332512	1831
bin	0.0002341056	1817
bin	0.00023496	1811
bin	0.0002358144	1658
bin	0.0002366688	1704
bin	0.0002375232	1745
bin	0.0002383776	1715
bin	0.000239232	1760
bin	0.0002400864	1763
bin	0.0002409408	1761
bin	0.0002417952	1672
bin	0.0002426496	1786
bin	0.000243504	1768
bin	0.0002443584	1799
bin	0.0002452128	1807
bin	0.0002460672	1789
bin	0.0002469216	1906
bin	0.000247776	1837
bin	0.0002486304	1917
bin	0.0002494848	1907
bin	0.0002503392	1886
bin	0.0002511936	1851
bin	0.000252048	1836
bin	0.0002529024	1865
bin	0.0002537568	1888
bin	0.0002546112	1926
bin	0.0002554656	1840
bin	0.00025632	1794
bin	0.0002571744	1766
bin	0.0002580288	1877
bin	0.0002588832	1889
bin	0.0002597376	1823
bin	0.000260592	1938
bin	0.0002614464	1827
bin	0.0002623008	1848
bin	0.0002631552	1872
bin	0.0002640096	1802
bin	0.000264864	1830
bin	0.0002657184	1827
bin	0.0002665728	1924
bin	0.0002674272	1918
bin	0.0002682816	1836
bin	0.000269136	1871
bin	0.0002699904	1906
bin	0.0002708448	1827
bin	0.0002716992	1832
bin	0.0002725536	1839
bin	0.000273408	1847
bin	0.0002742624	1853
bin	0.0002751168	1846
bin	0.0002759712	1879
bin	0.0002768256	1923
bin	0.00027768	1903
bin	0.0002785344	1782
bin	0.0002793888	1901
bin	0.0002802432	1847
bin	0.0002810976	1746
bin	0.000281952	1824
bin	0.0002828064	1795
bin	0.0002836608	1852
bin	0.0002845152	1797
bin	0.0002853696	1828
bin	0.000286224	1848
bin	0.0002870784	1786
bin	0.0002879328	1847
bin	0.0002887872	1784
bin	0.0002896416	1810
bin	0.000290496	1810
bin	0.0002913504	1894
bin	0.0002922048	1893
bin	0.0002930592	1869
bin	0.0002939136	1897
bin	0.000294768	1892
bin	0.0002956224	1835
bin	0.0002964768	1853
bin	0.0002973312	1847
bin	0.0002981856	1859
bin	0.00029904	1821
bin	0.0002998944	1790
bin	0.0003007488	1728
bin	0.0003016032	1817
bin	0.0003024576	1790
bin	0.000303312	1781
bin	0.0003041664	1772
bin	0.0003050208	1749
bin	0.0003058752	1737
bin	0.0003067296	1804
bin	0.000307584	1794
bin	0.0003084384	1773
bin	0.0003092928	1792
bin	0.0003101472	1764
bin	0.0003110016	1825
bin	0.000311856	1821
bin	0.0003127104	1768
bin	0.0003135648	1770
bin	0.0003144192	1737
bin	0.0003152736	1760
bin	0.000316128	1776
bin	0.0003169824	1726
bin	0.0003178368	1778
bin	0.0003186912	1719
bin	0.0003195456	1660
bin	0.0003204	1687
bin	0.0003212544	1697
bin	0.0003221088	1695
bin	0.0003229632	1645
bin	0.0003238176	1664
bin	0.000324672	1688
bin	0.0003255264	1718
bin	0.0003263808	1724
bin	0.0003272352	1640
bin	0.0003280896	1648
bin	0.000328944	1703
bin	0.0003297984	1688
bin	0.0003306528	1714
bin	0.0003315072	1691
bin	0.0003323616	1653
bin	0.000333216	1737
bin	0.0003340704	1646
bin	0.0003349248	1703
bin	0.0003357792	1688
bin	0.0003366336	1608
bin	0.000337488	1625
bin	0.0003383424	1621
bin	0.0003391968	1655
bin	0.0003400512	1668
bin	0.0003409056	1617
bin	0.00034176	1679
bin	0.0003426144	1639
bin	0.0003434688	1610
bin	0.0003443232	1624
bin	0.0003451776	1657
bin	0.000346032	1666
bin	0.0003468864	1671
bin	0.0003477408	1641
bin	0.0003485952	1633
bin	0.0003494496	1658
bin	0.000350304	1656
bin	0.0003511584	1658
bin	0.0003520128	1714
bin	0.0003528672	1649
bin	0.0003537216	1686
bin	0.000354576	1603
bin	0.0003554304	1641
bin	0.0003562848	1615
bin	0.0003571392	1697
bin	0.0003579936	1600
bin	0.000358848	1583
bin	0.0003597024	1579
bin	0.0003605568	1664
bin	0.0003614112	1605
bin	0.0003622656	1608
bin	0.00036312	1614
bin	0.0003639744	1611
bin	0.0003648288	1619
bin	0.0003656832	1572
bin	0.0003665376	1533
bin	0.000367392	1566
bin	0.0003682464	1614
bin	0.0003691008	1634
bin	0.0003699552	1595
bin	0.0003708096	1621
bin	0.000371664	1666
bin	0.0003725184	1636
bin	0.0003733728	1624
bin	0.0003742272	1684
bin	0.0003750816	1644
bin	0.000375936	1662
bin	0.0003767904	1671
bin	0.0003776448	1647
bin	0.0003784992	1647
bin	0.0003793536	1658
bin	0.000380208	1664
bin	0.0003810624	1631
bin	0.0003819168	1625
bin	0.0003827712	1629
bin	0.0003836256	1632
bin	0.00038448	1643
bin	0.0003853344	1602
bin	0.0003861888	1649
bin	0.0003870432	1581
bin	0.0003878976	1640
bin	0.000388752	1603
bin	0.0003896064	1638
bin	0.0003904608	1733
bin	0.0003913152	1683
bin	0.0003921696	1647
bin	0.000393024	1636
bin	0.0003938784	1651
bin	0.0003947328	1661
bin	0.0003955872	1620
bin	0.0003964416	1723
bin	0.000397296	1648
bin	0.0003981504	1681
bin	0.0003990048	1675
bin	0.0003998592	1772
bin	0.0004007136	1697
bin	0.000401568	1725
bin	0.0004024224	1757
bin	0.0004032768	1664
bin	0.0004041312	1680
bin	0.0004049856	1661
bin	0.00040584	1670
bin	0.0004066944	1710
bin	0.0004075488	1657
bin	0.0004084032	1634
bin	0.0004092576	1642
bin	0.000410112	1586
bin	0.0004109664	1630
bin	0.0004118208	1595
bin	0.0004126752	1735
bin	0.0004135296	1645
bin	0.000414384	1597
bin	0.0004152384	1585
bin	0.0004160928	1626
bin	0.0004169472	1630
bin	0.0004178016	1580
bin	0.000418656	1565
bin	0.0004195104	1625
bin	0.0004203648	1707
bin	0.0004212192	1644
bin	0.0004220736	1654
bin	0.000422928	1687
bin	0.0004237824	1685
bin	0.0004246368	1704
bin	0.0004254912	1723
bin	0.0004263456	1623
bin	0.0004272	4315547
