version 2
run Permutation-36-20120710-22:37:16-28115
attr alg 0
attr buf 8
attr configname Permutation
attr datetime 20120710-22:37:16
attr delta 1
attr experiment Permutation
attr ext true
attr inifile altro.ini
attr iterationvars "$buf=8, $ext=true, $ofedge=2, $delta=1, $alg=0"
attr iterationvars2 "$buf=8, $ext=true, $ofedge=2, $delta=1, $alg=0, $repetition=0"
attr measurement "$buf=8, $ext=true, $ofedge=2, $delta=1, $alg=0"
attr network Torus3d_bub
attr ofedge 2
attr processid 28115
attr repetition 0
attr replication #0
attr resultdir altro-results
attr runnumber 36
attr seedset 36

scalar . 	alg 	0
scalar . 	buf 	8
scalar . 	delta 	1
scalar . 	ofedge 	2
scalar Torus3d_bub.timer 	#endTime 	0.002876911333333
scalar Torus3d_bub.timer 	#totalHops 	76339200
scalar Torus3d_bub.timer 	#totalPacks 	6291456
scalar Torus3d_bub.timer 	#totalDerouted 	0
scalar Torus3d_bub.timer 	#totalOutFlanked 	0
scalar Torus3d_bub.timer 	#totalCQRed 	0
scalar Torus3d_bub.timer 	#LB 	0.000786432
scalar Torus3d_bub.timer 	#ratio 	0.27335983243143
statistic Torus3d_bub.timer 	"Hop Times"
field count 6291456
field mean 7.3203585653932e-05
field stddev 7.7177964827572e-05
field sum 460.55713818394
field sqrsum 0.071189097154724
field min 3.89466662e-07
field max 0.001785571666628
bin	-INF	0
bin	0	0
bin	7.12e-08	0
bin	1.424e-07	0
bin	2.136e-07	0
bin	2.848e-07	0
bin	3.56e-07	34
bin	4.272e-07	984
bin	4.984e-07	3354
bin	5.696e-07	5235
bin	6.408e-07	7246
bin	7.12e-07	9248
bin	7.832e-07	11383
bin	8.544e-07	13245
bin	9.256e-07	14723
bin	9.968e-07	16550
bin	1.068e-06	18211
bin	1.1392e-06	19798
bin	1.2104e-06	21778
bin	1.2816e-06	23371
bin	1.3528e-06	25579
bin	1.424e-06	27442
bin	1.4952e-06	29690
bin	1.5664e-06	31368
bin	1.6376e-06	32514
bin	1.7088e-06	33404
bin	1.78e-06	33742
bin	1.8512e-06	33727
bin	1.9224e-06	33421
bin	1.9936e-06	32907
bin	2.0648e-06	31772
bin	2.136e-06	30736
bin	2.2072e-06	29600
bin	2.2784e-06	28213
bin	2.3496e-06	26872
bin	2.4208e-06	25546
bin	2.492e-06	24335
bin	2.5632e-06	22961
bin	2.6344e-06	21603
bin	2.7056e-06	20677
bin	2.7768e-06	19683
bin	2.848e-06	18472
bin	2.9192e-06	17697
bin	2.9904e-06	16743
bin	3.0616e-06	15834
bin	3.1328e-06	15117
bin	3.204e-06	14465
bin	3.2752e-06	13823
bin	3.3464e-06	13117
bin	3.4176e-06	12619
bin	3.4888e-06	12075
bin	3.56e-06	11753
bin	3.6312e-06	11512
bin	3.7024e-06	11059
bin	3.7736e-06	10659
bin	3.8448e-06	10251
bin	3.916e-06	9923
bin	3.9872e-06	9734
bin	4.0584e-06	9486
bin	4.1296e-06	9097
bin	4.2008e-06	9088
bin	4.272e-06	8712
bin	4.3432e-06	8559
bin	4.4144e-06	8406
bin	4.4856e-06	8196
bin	4.5568e-06	8090
bin	4.628e-06	8004
bin	4.6992e-06	7672
bin	4.7704e-06	7707
bin	4.8416e-06	7547
bin	4.9128e-06	7453
bin	4.984e-06	7218
bin	5.0552e-06	7117
bin	5.1264e-06	6927
bin	5.1976e-06	6910
bin	5.2688e-06	6825
bin	5.34e-06	6555
bin	5.4112e-06	6512
bin	5.4824e-06	6457
bin	5.5536e-06	6354
bin	5.6248e-06	6327
bin	5.696e-06	6077
bin	5.7672e-06	5869
bin	5.8384e-06	5965
bin	5.9096e-06	6030
bin	5.9808e-06	5761
bin	6.052e-06	5636
bin	6.1232e-06	5657
bin	6.1944e-06	5655
bin	6.2656e-06	5527
bin	6.3368e-06	5487
bin	6.408e-06	5519
bin	6.4792e-06	5437
bin	6.5504e-06	5364
bin	6.6216e-06	5358
bin	6.6928e-06	5283
bin	6.764e-06	5330
bin	6.8352e-06	5256
bin	6.9064e-06	5171
bin	6.9776e-06	5119
bin	7.0488e-06	4995
bin	7.12e-06	5008
bin	7.1912e-06	4981
bin	7.2624e-06	4875
bin	7.3336e-06	4942
bin	7.4048e-06	4887
bin	7.476e-06	4782
bin	7.5472e-06	4737
bin	7.6184e-06	4692
bin	7.6896e-06	4505
bin	7.7608e-06	4557
bin	7.832e-06	4484
bin	7.9032e-06	4581
bin	7.9744e-06	4424
bin	8.0456e-06	4463
bin	8.1168e-06	4516
bin	8.188e-06	4373
bin	8.2592e-06	4277
bin	8.3304e-06	4319
bin	8.4016e-06	4311
bin	8.4728e-06	4194
bin	8.544e-06	4318
bin	8.6152e-06	4123
bin	8.6864e-06	4185
bin	8.7576e-06	4131
bin	8.8288e-06	4046
bin	8.9e-06	4033
bin	8.9712e-06	3975
bin	9.0424e-06	3920
bin	9.1136e-06	3963
bin	9.1848e-06	3865
bin	9.256e-06	3943
bin	9.3272e-06	3914
bin	9.3984e-06	4045
bin	9.4696e-06	3975
bin	9.5408e-06	3914
bin	9.612e-06	3933
bin	9.6832e-06	3822
bin	9.7544e-06	3810
bin	9.8256e-06	3797
bin	9.8968e-06	3760
bin	9.968e-06	3617
bin	1.00392e-05	3624
bin	1.01104e-05	3578
bin	1.01816e-05	3570
bin	1.02528e-05	3557
bin	1.0324e-05	3623
bin	1.03952e-05	3562
bin	1.04664e-05	3577
bin	1.05376e-05	3368
bin	1.06088e-05	3540
bin	1.068e-05	3416
bin	1.07512e-05	3550
bin	1.08224e-05	3409
bin	1.08936e-05	3406
bin	1.09648e-05	3444
bin	1.1036e-05	3384
bin	1.11072e-05	3389
bin	1.11784e-05	3441
bin	1.12496e-05	3293
bin	1.13208e-05	3288
bin	1.1392e-05	3288
bin	1.14632e-05	3264
bin	1.15344e-05	3301
bin	1.16056e-05	3330
bin	1.16768e-05	3312
bin	1.1748e-05	3339
bin	1.18192e-05	3251
bin	1.18904e-05	3245
bin	1.19616e-05	3361
bin	1.20328e-05	3235
bin	1.2104e-05	3210
bin	1.21752e-05	3306
bin	1.22464e-05	3244
bin	1.23176e-05	3289
bin	1.23888e-05	3184
bin	1.246e-05	3227
bin	1.25312e-05	3255
bin	1.26024e-05	3162
bin	1.26736e-05	3295
bin	1.27448e-05	3188
bin	1.2816e-05	3153
bin	1.28872e-05	3166
bin	1.29584e-05	3181
bin	1.30296e-05	3299
bin	1.31008e-05	3182
bin	1.3172e-05	3159
bin	1.32432e-05	3012
bin	1.33144e-05	3092
bin	1.33856e-05	3166
bin	1.34568e-05	3109
bin	1.3528e-05	3123
bin	1.35992e-05	3129
bin	1.36704e-05	3124
bin	1.37416e-05	3103
bin	1.38128e-05	3039
bin	1.3884e-05	3029
bin	1.39552e-05	3030
bin	1.40264e-05	3005
bin	1.40976e-05	3073
bin	1.41688e-05	3054
bin	1.424e-05	3028
bin	1.43112e-05	2986
bin	1.43824e-05	3008
bin	1.44536e-05	2943
bin	1.45248e-05	3030
bin	1.4596e-05	2868
bin	1.46672e-05	2902
bin	1.47384e-05	3009
bin	1.48096e-05	2990
bin	1.48808e-05	3005
bin	1.4952e-05	2895
bin	1.50232e-05	2981
bin	1.50944e-05	2926
bin	1.51656e-05	2924
bin	1.52368e-05	2863
bin	1.5308e-05	2883
bin	1.53792e-05	2847
bin	1.54504e-05	2840
bin	1.55216e-05	2862
bin	1.55928e-05	2983
bin	1.5664e-05	2885
bin	1.57352e-05	2842
bin	1.58064e-05	2952
bin	1.58776e-05	2900
bin	1.59488e-05	2929
bin	1.602e-05	2878
bin	1.60912e-05	2910
bin	1.61624e-05	2942
bin	1.62336e-05	2899
bin	1.63048e-05	2773
bin	1.6376e-05	2746
bin	1.64472e-05	2796
bin	1.65184e-05	2800
bin	1.65896e-05	2718
bin	1.66608e-05	2832
bin	1.6732e-05	2766
bin	1.68032e-05	2714
bin	1.68744e-05	2727
bin	1.69456e-05	2638
bin	1.70168e-05	2733
bin	1.7088e-05	2761
bin	1.71592e-05	2677
bin	1.72304e-05	2659
bin	1.73016e-05	2625
bin	1.73728e-05	2541
bin	1.7444e-05	2533
bin	1.75152e-05	2592
bin	1.75864e-05	2648
bin	1.76576e-05	2524
bin	1.77288e-05	2699
bin	1.78e-05	2687
bin	1.78712e-05	2713
bin	1.79424e-05	2596
bin	1.80136e-05	2560
bin	1.80848e-05	2637
bin	1.8156e-05	2552
bin	1.82272e-05	2536
bin	1.82984e-05	2577
bin	1.83696e-05	2576
bin	1.84408e-05	2575
bin	1.8512e-05	2640
bin	1.85832e-05	2610
bin	1.86544e-05	2570
bin	1.87256e-05	2592
bin	1.87968e-05	2588
bin	1.8868e-05	2564
bin	1.89392e-05	2496
bin	1.90104e-05	2544
bin	1.90816e-05	2569
bin	1.91528e-05	2557
bin	1.9224e-05	2565
bin	1.92952e-05	2563
bin	1.93664e-05	2555
bin	1.94376e-05	2594
bin	1.95088e-05	2546
bin	1.958e-05	2551
bin	1.96512e-05	2514
bin	1.97224e-05	2384
bin	1.97936e-05	2368
bin	1.98648e-05	2438
bin	1.9936e-05	2366
bin	2.00072e-05	2420
bin	2.00784e-05	2409
bin	2.01496e-05	2436
bin	2.02208e-05	2382
bin	2.0292e-05	2334
bin	2.03632e-05	2339
bin	2.04344e-05	2412
bin	2.05056e-05	2418
bin	2.05768e-05	2482
bin	2.0648e-05	2492
bin	2.07192e-05	2449
bin	2.07904e-05	2424
bin	2.08616e-05	2448
bin	2.09328e-05	2437
bin	2.1004e-05	2415
bin	2.10752e-05	2443
bin	2.11464e-05	2457
bin	2.12176e-05	2407
bin	2.12888e-05	2427
bin	2.136e-05	2476
bin	2.14312e-05	2498
bin	2.15024e-05	2438
bin	2.15736e-05	2407
bin	2.16448e-05	2491
bin	2.1716e-05	2487
bin	2.17872e-05	2500
bin	2.18584e-05	2441
bin	2.19296e-05	2429
bin	2.20008e-05	2477
bin	2.2072e-05	2425
bin	2.21432e-05	2467
bin	2.22144e-05	2335
bin	2.22856e-05	2409
bin	2.23568e-05	2404
bin	2.2428e-05	2437
bin	2.24992e-05	2388
bin	2.25704e-05	2355
bin	2.26416e-05	2388
bin	2.27128e-05	2356
bin	2.2784e-05	2369
bin	2.28552e-05	2444
bin	2.29264e-05	2449
bin	2.29976e-05	2501
bin	2.30688e-05	2369
bin	2.314e-05	2339
bin	2.32112e-05	2363
bin	2.32824e-05	2280
bin	2.33536e-05	2241
bin	2.34248e-05	2205
bin	2.3496e-05	2277
bin	2.35672e-05	2220
bin	2.36384e-05	2221
bin	2.37096e-05	2196
bin	2.37808e-05	2143
bin	2.3852e-05	2153
bin	2.39232e-05	2147
bin	2.39944e-05	2116
bin	2.40656e-05	2227
bin	2.41368e-05	2228
bin	2.4208e-05	2222
bin	2.42792e-05	2200
bin	2.43504e-05	2199
bin	2.44216e-05	2205
bin	2.44928e-05	2217
bin	2.4564e-05	2116
bin	2.46352e-05	2133
bin	2.47064e-05	2121
bin	2.47776e-05	2256
bin	2.48488e-05	2137
bin	2.492e-05	2172
bin	2.49912e-05	2292
bin	2.50624e-05	2267
bin	2.51336e-05	2262
bin	2.52048e-05	2168
bin	2.5276e-05	2196
bin	2.53472e-05	2213
bin	2.54184e-05	2201
bin	2.54896e-05	2190
bin	2.55608e-05	2169
bin	2.5632e-05	2194
bin	2.57032e-05	2231
bin	2.57744e-05	2129
bin	2.58456e-05	2062
bin	2.59168e-05	2069
bin	2.5988e-05	1976
bin	2.60592e-05	2005
bin	2.61304e-05	2044
bin	2.62016e-05	2082
bin	2.62728e-05	2120
bin	2.6344e-05	2134
bin	2.64152e-05	2103
bin	2.64864e-05	2160
bin	2.65576e-05	2162
bin	2.66288e-05	2136
bin	2.67e-05	2115
bin	2.67712e-05	2123
bin	2.68424e-05	2099
bin	2.69136e-05	2110
bin	2.69848e-05	2043
bin	2.7056e-05	2122
bin	2.71272e-05	2023
bin	2.71984e-05	2003
bin	2.72696e-05	2075
bin	2.73408e-05	2030
bin	2.7412e-05	2061
bin	2.74832e-05	2009
bin	2.75544e-05	1952
bin	2.76256e-05	1952
bin	2.76968e-05	2039
bin	2.7768e-05	1984
bin	2.78392e-05	1973
bin	2.79104e-05	1993
bin	2.79816e-05	1916
bin	2.80528e-05	1920
bin	2.8124e-05	1984
bin	2.81952e-05	1988
bin	2.82664e-05	2024
bin	2.83376e-05	1950
bin	2.84088e-05	1964
bin	2.848e-05	2036
bin	2.85512e-05	1935
bin	2.86224e-05	1931
bin	2.86936e-05	1986
bin	2.87648e-05	1946
bin	2.8836e-05	1934
bin	2.89072e-05	1873
bin	2.89784e-05	1944
bin	2.90496e-05	1916
bin	2.91208e-05	1936
bin	2.9192e-05	1971
bin	2.92632e-05	1934
bin	2.93344e-05	1993
bin	2.94056e-05	1990
bin	2.94768e-05	1963
bin	2.9548e-05	1960
bin	2.96192e-05	1942
bin	2.96904e-05	1858
bin	2.97616e-05	1872
bin	2.98328e-05	1938
bin	2.9904e-05	1953
bin	2.99752e-05	1972
bin	3.00464e-05	1986
bin	3.01176e-05	1965
bin	3.01888e-05	1924
bin	3.026e-05	1919
bin	3.03312e-05	1983
bin	3.04024e-05	2006
bin	3.04736e-05	1957
bin	3.05448e-05	1880
bin	3.0616e-05	1936
bin	3.06872e-05	1907
bin	3.07584e-05	1940
bin	3.08296e-05	1960
bin	3.09008e-05	1976
bin	3.0972e-05	1933
bin	3.10432e-05	1970
bin	3.11144e-05	1958
bin	3.11856e-05	1985
bin	3.12568e-05	2022
bin	3.1328e-05	1986
bin	3.13992e-05	1969
bin	3.14704e-05	1982
bin	3.15416e-05	1978
bin	3.16128e-05	1948
bin	3.1684e-05	1961
bin	3.17552e-05	1943
bin	3.18264e-05	1985
bin	3.18976e-05	1931
bin	3.19688e-05	1893
bin	3.204e-05	1930
bin	3.21112e-05	2006
bin	3.21824e-05	1990
bin	3.22536e-05	2082
bin	3.23248e-05	1952
bin	3.2396e-05	2046
bin	3.24672e-05	2020
bin	3.25384e-05	2016
bin	3.26096e-05	1996
bin	3.26808e-05	1997
bin	3.2752e-05	2059
bin	3.28232e-05	2009
bin	3.28944e-05	2026
bin	3.29656e-05	2047
bin	3.30368e-05	2112
bin	3.3108e-05	2047
bin	3.31792e-05	1992
bin	3.32504e-05	2010
bin	3.33216e-05	2058
bin	3.33928e-05	2008
bin	3.3464e-05	2004
bin	3.35352e-05	2056
bin	3.36064e-05	2056
bin	3.36776e-05	2046
bin	3.37488e-05	2051
bin	3.382e-05	2029
bin	3.38912e-05	2109
bin	3.39624e-05	2019
bin	3.40336e-05	2030
bin	3.41048e-05	1971
bin	3.4176e-05	1964
bin	3.42472e-05	1962
bin	3.43184e-05	2023
bin	3.43896e-05	1984
bin	3.44608e-05	1996
bin	3.4532e-05	1915
bin	3.46032e-05	1971
bin	3.46744e-05	1966
bin	3.47456e-05	2081
bin	3.48168e-05	1984
bin	3.4888e-05	2038
bin	3.49592e-05	2022
bin	3.50304e-05	2077
bin	3.51016e-05	2069
bin	3.51728e-05	2040
bin	3.5244e-05	2052
bin	3.53152e-05	2030
bin	3.53864e-05	2048
bin	3.54576e-05	2122
bin	3.55288e-05	1984
bin	3.56e-05	3966021
statistic Torus3d_bub.timer 	"Life Times"
field count 6291456
field mean 0.00078737225567595
field stddev 0.0006101656181715
field sum 4953.717902206
field sqrsum 6.2427418314263
field min 5.62666321e-07
field max 0.002869332333333
bin	-INF	0
bin	0	44
bin	8.544e-07	647
bin	1.7088e-06	2034
bin	2.5632e-06	3621
bin	3.4176e-06	5318
bin	4.272e-06	7152
bin	5.1264e-06	9139
bin	5.9808e-06	11068
bin	6.8352e-06	12785
bin	7.6896e-06	14676
bin	8.544e-06	16363
bin	9.3984e-06	18407
bin	1.02528e-05	19871
bin	1.11072e-05	21378
bin	1.19616e-05	22543
bin	1.2816e-05	23682
bin	1.36704e-05	24947
bin	1.45248e-05	26024
bin	1.53792e-05	26410
bin	1.62336e-05	27256
bin	1.7088e-05	27911
bin	1.79424e-05	28377
bin	1.87968e-05	28451
bin	1.96512e-05	29146
bin	2.05056e-05	29954
bin	2.136e-05	30381
bin	2.22144e-05	30894
bin	2.30688e-05	31010
bin	2.39232e-05	31223
bin	2.47776e-05	30976
bin	2.5632e-05	30056
bin	2.64864e-05	28700
bin	2.73408e-05	27388
bin	2.81952e-05	25702
bin	2.90496e-05	24396
bin	2.9904e-05	22762
bin	3.07584e-05	21346
bin	3.16128e-05	20052
bin	3.24672e-05	18917
bin	3.33216e-05	17509
bin	3.4176e-05	16310
bin	3.50304e-05	15252
bin	3.58848e-05	14265
bin	3.67392e-05	13215
bin	3.75936e-05	12597
bin	3.8448e-05	11880
bin	3.93024e-05	11412
bin	4.01568e-05	10799
bin	4.10112e-05	10469
bin	4.18656e-05	10292
bin	4.272e-05	9839
bin	4.35744e-05	9889
bin	4.44288e-05	9662
bin	4.52832e-05	9471
bin	4.61376e-05	9367
bin	4.6992e-05	9153
bin	4.78464e-05	8950
bin	4.87008e-05	8940
bin	4.95552e-05	8774
bin	5.04096e-05	8832
bin	5.1264e-05	8525
bin	5.21184e-05	8444
bin	5.29728e-05	8285
bin	5.38272e-05	7918
bin	5.46816e-05	7772
bin	5.5536e-05	7690
bin	5.63904e-05	7393
bin	5.72448e-05	7246
bin	5.80992e-05	7060
bin	5.89536e-05	7008
bin	5.9808e-05	6770
bin	6.06624e-05	6544
bin	6.15168e-05	6382
bin	6.23712e-05	6317
bin	6.32256e-05	5948
bin	6.408e-05	5878
bin	6.49344e-05	5776
bin	6.57888e-05	5752
bin	6.66432e-05	5670
bin	6.74976e-05	5602
bin	6.8352e-05	5573
bin	6.92064e-05	5458
bin	7.00608e-05	5598
bin	7.09152e-05	5587
bin	7.17696e-05	5717
bin	7.2624e-05	5572
bin	7.34784e-05	5831
bin	7.43328e-05	5748
bin	7.51872e-05	5561
bin	7.60416e-05	5731
bin	7.6896e-05	5631
bin	7.77504e-05	5469
bin	7.86048e-05	5587
bin	7.94592e-05	5376
bin	8.03136e-05	5445
bin	8.1168e-05	5388
bin	8.20224e-05	5220
bin	8.28768e-05	5120
bin	8.37312e-05	5072
bin	8.45856e-05	4913
bin	8.544e-05	4669
bin	8.62944e-05	4696
bin	8.71488e-05	4585
bin	8.80032e-05	4561
bin	8.88576e-05	4539
bin	8.9712e-05	4422
bin	9.05664e-05	4385
bin	9.14208e-05	4260
bin	9.22752e-05	4377
bin	9.31296e-05	4336
bin	9.3984e-05	4414
bin	9.48384e-05	4416
bin	9.56928e-05	4340
bin	9.65472e-05	4441
bin	9.74016e-05	4375
bin	9.8256e-05	4379
bin	9.91104e-05	4372
bin	9.99648e-05	4425
bin	0.0001008192	4357
bin	0.0001016736	4357
bin	0.000102528	4392
bin	0.0001033824	4390
bin	0.0001042368	4392
bin	0.0001050912	4317
bin	0.0001059456	4322
bin	0.0001068	4215
bin	0.0001076544	4051
bin	0.0001085088	4042
bin	0.0001093632	4041
bin	0.0001102176	4034
bin	0.000111072	3926
bin	0.0001119264	3819
bin	0.0001127808	3831
bin	0.0001136352	3789
bin	0.0001144896	3776
bin	0.000115344	3644
bin	0.0001161984	3611
bin	0.0001170528	3583
bin	0.0001179072	3688
bin	0.0001187616	3703
bin	0.000119616	3707
bin	0.0001204704	3775
bin	0.0001213248	3752
bin	0.0001221792	3883
bin	0.0001230336	3877
bin	0.000123888	3806
bin	0.0001247424	3868
bin	0.0001255968	3784
bin	0.0001264512	3845
bin	0.0001273056	3868
bin	0.00012816	3750
bin	0.0001290144	3728
bin	0.0001298688	3613
bin	0.0001307232	3548
bin	0.0001315776	3607
bin	0.000132432	3467
bin	0.0001332864	3418
bin	0.0001341408	3464
bin	0.0001349952	3390
bin	0.0001358496	3425
bin	0.000136704	3220
bin	0.0001375584	3250
bin	0.0001384128	3260
bin	0.0001392672	3278
bin	0.0001401216	3306
bin	0.000140976	3307
bin	0.0001418304	3207
bin	0.0001426848	3216
bin	0.0001435392	3251
bin	0.0001443936	3192
bin	0.000145248	3297
bin	0.0001461024	3282
bin	0.0001469568	3274
bin	0.0001478112	3294
bin	0.0001486656	3212
bin	0.00014952	3390
bin	0.0001503744	3398
bin	0.0001512288	3309
bin	0.0001520832	3262
bin	0.0001529376	3280
bin	0.000153792	3221
bin	0.0001546464	3194
bin	0.0001555008	3117
bin	0.0001563552	3077
bin	0.0001572096	3053
bin	0.000158064	2991
bin	0.0001589184	2993
bin	0.0001597728	2866
bin	0.0001606272	2789
bin	0.0001614816	2772
bin	0.000162336	2808
bin	0.0001631904	2791
bin	0.0001640448	2744
bin	0.0001648992	2834
bin	0.0001657536	2770
bin	0.000166608	2816
bin	0.0001674624	2835
bin	0.0001683168	2782
bin	0.0001691712	2868
bin	0.0001700256	3010
bin	0.00017088	2926
bin	0.0001717344	2985
bin	0.0001725888	3019
bin	0.0001734432	3021
bin	0.0001742976	3003
bin	0.000175152	2928
bin	0.0001760064	3006
bin	0.0001768608	2958
bin	0.0001777152	3021
bin	0.0001785696	2978
bin	0.000179424	2822
bin	0.0001802784	2781
bin	0.0001811328	2745
bin	0.0001819872	2700
bin	0.0001828416	2755
bin	0.000183696	2725
bin	0.0001845504	2631
bin	0.0001854048	2724
bin	0.0001862592	2754
bin	0.0001871136	2701
bin	0.000187968	2703
bin	0.0001888224	2664
bin	0.0001896768	2660
bin	0.0001905312	2652
bin	0.0001913856	2651
bin	0.00019224	2714
bin	0.0001930944	2709
bin	0.0001939488	2794
bin	0.0001948032	2806
bin	0.0001956576	2765
bin	0.000196512	2936
bin	0.0001973664	2802
bin	0.0001982208	2752
bin	0.0001990752	2773
bin	0.0001999296	2776
bin	0.000200784	2829
bin	0.0002016384	2773
bin	0.0002024928	2767
bin	0.0002033472	2793
bin	0.0002042016	2728
bin	0.000205056	2651
bin	0.0002059104	2704
bin	0.0002067648	2663
bin	0.0002076192	2568
bin	0.0002084736	2553
bin	0.000209328	2489
bin	0.0002101824	2490
bin	0.0002110368	2450
bin	0.0002118912	2407
bin	0.0002127456	2403
bin	0.0002136	2444
bin	0.0002144544	2504
bin	0.0002153088	2443
bin	0.0002161632	2468
bin	0.0002170176	2518
bin	0.000217872	2468
bin	0.0002187264	2453
bin	0.0002195808	2345
bin	0.0002204352	2459
bin	0.0002212896	2499
bin	0.000222144	2540
bin	0.0002229984	2426
bin	0.0002238528	2502
bin	0.0002247072	2475
bin	0.0002255616	2452
bin	0.000226416	2375
bin	0.0002272704	2401
bin	0.0002281248	2310
bin	0.0002289792	2322
bin	0.0002298336	2400
bin	0.000230688	2386
bin	0.0002315424	2341
bin	0.0002323968	2340
bin	0.0002332512	2435
bin	0.0002341056	2341
bin	0.00023496	2381
bin	0.0002358144	2251
bin	0.0002366688	2252
bin	0.0002375232	2309
bin	0.0002383776	2265
bin	0.000239232	2400
bin	0.0002400864	2381
bin	0.0002409408	2371
bin	0.0002417952	2347
bin	0.0002426496	2422
bin	0.000243504	2307
bin	0.0002443584	2360
bin	0.0002452128	2454
bin	0.0002460672	2401
bin	0.0002469216	2449
bin	0.000247776	2473
bin	0.0002486304	2523
bin	0.0002494848	2514
bin	0.0002503392	2563
bin	0.0002511936	2567
bin	0.000252048	2617
bin	0.0002529024	2681
bin	0.0002537568	2590
bin	0.0002546112	2516
bin	0.0002554656	2542
bin	0.00025632	2455
bin	0.0002571744	2448
bin	0.0002580288	2450
bin	0.0002588832	2404
bin	0.0002597376	2419
bin	0.000260592	2387
bin	0.0002614464	2341
bin	0.0002623008	2351
bin	0.0002631552	2296
bin	0.0002640096	2387
bin	0.000264864	2399
bin	0.0002657184	2416
bin	0.0002665728	2337
bin	0.0002674272	2428
bin	0.0002682816	2428
bin	0.000269136	2370
bin	0.0002699904	2474
bin	0.0002708448	2371
bin	0.0002716992	2439
bin	0.0002725536	2423
bin	0.000273408	2435
bin	0.0002742624	2376
bin	0.0002751168	2451
bin	0.0002759712	2281
bin	0.0002768256	2299
bin	0.00027768	2202
bin	0.0002785344	2249
bin	0.0002793888	2229
bin	0.0002802432	2191
bin	0.0002810976	2155
bin	0.000281952	2045
bin	0.0002828064	1985
bin	0.0002836608	2040
bin	0.0002845152	2044
bin	0.0002853696	2005
bin	0.000286224	2074
bin	0.0002870784	2057
bin	0.0002879328	2030
bin	0.0002887872	2119
bin	0.0002896416	2103
bin	0.000290496	2118
bin	0.0002913504	2127
bin	0.0002922048	2093
bin	0.0002930592	2115
bin	0.0002939136	2102
bin	0.000294768	2115
bin	0.0002956224	2173
bin	0.0002964768	2192
bin	0.0002973312	2124
bin	0.0002981856	2217
bin	0.00029904	2160
bin	0.0002998944	2165
bin	0.0003007488	2214
bin	0.0003016032	2220
bin	0.0003024576	2132
bin	0.000303312	2114
bin	0.0003041664	2001
bin	0.0003050208	2065
bin	0.0003058752	2006
bin	0.0003067296	1892
bin	0.000307584	2058
bin	0.0003084384	1950
bin	0.0003092928	1948
bin	0.0003101472	1967
bin	0.0003110016	1977
bin	0.000311856	1865
bin	0.0003127104	1898
bin	0.0003135648	1854
bin	0.0003144192	1858
bin	0.0003152736	1941
bin	0.000316128	2059
bin	0.0003169824	2047
bin	0.0003178368	1983
bin	0.0003186912	2007
bin	0.0003195456	2064
bin	0.0003204	2020
bin	0.0003212544	2056
bin	0.0003221088	2035
bin	0.0003229632	2081
bin	0.0003238176	2036
bin	0.000324672	1980
bin	0.0003255264	1984
bin	0.0003263808	1960
bin	0.0003272352	1969
bin	0.0003280896	1926
bin	0.000328944	1938
bin	0.0003297984	1925
bin	0.0003306528	1877
bin	0.0003315072	1870
bin	0.0003323616	1852
bin	0.000333216	1866
bin	0.0003340704	1885
bin	0.0003349248	1890
bin	0.0003357792	1757
bin	0.0003366336	1837
bin	0.000337488	1844
bin	0.0003383424	1875
bin	0.0003391968	1860
bin	0.0003400512	1875
bin	0.0003409056	1795
bin	0.00034176	1789
bin	0.0003426144	1846
bin	0.0003434688	1918
bin	0.0003443232	1840
bin	0.0003451776	1903
bin	0.000346032	1878
bin	0.0003468864	1911
bin	0.0003477408	1931
bin	0.0003485952	1931
bin	0.0003494496	1957
bin	0.000350304	1902
bin	0.0003511584	1951
bin	0.0003520128	1901
bin	0.0003528672	1958
bin	0.0003537216	1875
bin	0.000354576	1849
bin	0.0003554304	1858
bin	0.0003562848	1804
bin	0.0003571392	1863
bin	0.0003579936	1907
bin	0.000358848	1924
bin	0.0003597024	1870
bin	0.0003605568	1869
bin	0.0003614112	1781
bin	0.0003622656	1823
bin	0.00036312	1806
bin	0.0003639744	1824
bin	0.0003648288	1871
bin	0.0003656832	1882
bin	0.0003665376	1961
bin	0.000367392	2013
bin	0.0003682464	1919
bin	0.0003691008	1899
bin	0.0003699552	1927
bin	0.0003708096	1971
bin	0.000371664	1975
bin	0.0003725184	1978
bin	0.0003733728	1950
bin	0.0003742272	1926
bin	0.0003750816	2024
bin	0.000375936	1976
bin	0.0003767904	1886
bin	0.0003776448	1899
bin	0.0003784992	1860
bin	0.0003793536	1937
bin	0.000380208	1905
bin	0.0003810624	1883
bin	0.0003819168	1897
bin	0.0003827712	1943
bin	0.0003836256	1914
bin	0.00038448	1973
bin	0.0003853344	1930
bin	0.0003861888	1918
bin	0.0003870432	1966
bin	0.0003878976	1982
bin	0.000388752	2004
bin	0.0003896064	2005
bin	0.0003904608	2033
bin	0.0003913152	1935
bin	0.0003921696	1978
bin	0.000393024	1919
bin	0.0003938784	2011
bin	0.0003947328	1993
bin	0.0003955872	1986
bin	0.0003964416	1936
bin	0.000397296	2036
bin	0.0003981504	2016
bin	0.0003990048	1983
bin	0.0003998592	2002
bin	0.0004007136	2037
bin	0.000401568	1956
bin	0.0004024224	1959
bin	0.0004032768	1958
bin	0.0004041312	1961
bin	0.0004049856	1923
bin	0.00040584	1997
bin	0.0004066944	1938
bin	0.0004075488	1818
bin	0.0004084032	1805
bin	0.0004092576	1848
bin	0.000410112	1790
bin	0.0004109664	1836
bin	0.0004118208	1824
bin	0.0004126752	1785
bin	0.0004135296	1862
bin	0.000414384	1787
bin	0.0004152384	1795
bin	0.0004160928	1823
bin	0.0004169472	1903
bin	0.0004178016	1929
bin	0.000418656	1920
bin	0.0004195104	1900
bin	0.0004203648	1949
bin	0.0004212192	1899
bin	0.0004220736	1904
bin	0.000422928	1893
bin	0.0004237824	1887
bin	0.0004246368	1902
bin	0.0004254912	1893
bin	0.0004263456	1884
bin	0.0004272	3968698
