version 2
run Permutation-78-20120711-02:14:59-28239
attr alg 2
attr buf 8
attr configname Permutation
attr datetime 20120711-02:14:59
attr delta 1
attr experiment Permutation
attr ext false
attr inifile altro.ini
attr iterationvars "$buf=8, $ext=false, $ofedge=2, $delta=1, $alg=2"
attr iterationvars2 "$buf=8, $ext=false, $ofedge=2, $delta=1, $alg=2, $repetition=0"
attr measurement "$buf=8, $ext=false, $ofedge=2, $delta=1, $alg=2"
attr network Torus3d_bub
attr ofedge 2
attr processid 28239
attr repetition 0
attr replication #0
attr resultdir altro-results
attr runnumber 78
attr seedset 78

scalar . 	alg 	2
scalar . 	buf 	8
scalar . 	delta 	1
scalar . 	ofedge 	2
scalar Torus3d_bub.timer 	#endTime 	0.002812782666627
scalar Torus3d_bub.timer 	#totalHops 	89835916
scalar Torus3d_bub.timer 	#totalPacks 	6291456
scalar Torus3d_bub.timer 	#totalDerouted 	1966402
scalar Torus3d_bub.timer 	#totalOutFlanked 	0
scalar Torus3d_bub.timer 	#totalCQRed 	1966402
scalar Torus3d_bub.timer 	#LB 	0.000786432
scalar Torus3d_bub.timer 	#ratio 	0.27959216662234
statistic Torus3d_bub.timer 	"Hop Times"
field count 6291456
field mean 7.1646317787628e-05
field stddev 7.5464587980671e-05
field sum 450.75965592288
field sqrsum 0.068124502045362
field min 3.80142857e-07
field max 0.001346294
bin	-INF	0
bin	0	0
bin	7.12e-08	0
bin	1.424e-07	0
bin	2.136e-07	0
bin	2.848e-07	0
bin	3.56e-07	182
bin	4.272e-07	1227
bin	4.984e-07	3943
bin	5.696e-07	5519
bin	6.408e-07	7222
bin	7.12e-07	8917
bin	7.832e-07	10641
bin	8.544e-07	12666
bin	9.256e-07	14782
bin	9.968e-07	16615
bin	1.068e-06	19042
bin	1.1392e-06	21126
bin	1.2104e-06	23601
bin	1.2816e-06	26787
bin	1.3528e-06	29787
bin	1.424e-06	33156
bin	1.4952e-06	36300
bin	1.5664e-06	39458
bin	1.6376e-06	42046
bin	1.7088e-06	43796
bin	1.78e-06	45051
bin	1.8512e-06	44444
bin	1.9224e-06	44150
bin	1.9936e-06	42711
bin	2.0648e-06	40866
bin	2.136e-06	38658
bin	2.2072e-06	36497
bin	2.2784e-06	34073
bin	2.3496e-06	31867
bin	2.4208e-06	29990
bin	2.492e-06	28007
bin	2.5632e-06	25944
bin	2.6344e-06	24181
bin	2.7056e-06	22454
bin	2.7768e-06	20916
bin	2.848e-06	19472
bin	2.9192e-06	18311
bin	2.9904e-06	17355
bin	3.0616e-06	15935
bin	3.1328e-06	15098
bin	3.204e-06	14179
bin	3.2752e-06	13377
bin	3.3464e-06	12852
bin	3.4176e-06	12194
bin	3.4888e-06	11522
bin	3.56e-06	10850
bin	3.6312e-06	10304
bin	3.7024e-06	9906
bin	3.7736e-06	9649
bin	3.8448e-06	9308
bin	3.916e-06	8867
bin	3.9872e-06	8382
bin	4.0584e-06	8227
bin	4.1296e-06	7976
bin	4.2008e-06	7686
bin	4.272e-06	7559
bin	4.3432e-06	7466
bin	4.4144e-06	7159
bin	4.4856e-06	6774
bin	4.5568e-06	6596
bin	4.628e-06	6675
bin	4.6992e-06	6389
bin	4.7704e-06	6279
bin	4.8416e-06	6073
bin	4.9128e-06	5947
bin	4.984e-06	5870
bin	5.0552e-06	5634
bin	5.1264e-06	5628
bin	5.1976e-06	5519
bin	5.2688e-06	5295
bin	5.34e-06	5207
bin	5.4112e-06	5060
bin	5.4824e-06	5098
bin	5.5536e-06	5073
bin	5.6248e-06	4915
bin	5.696e-06	4852
bin	5.7672e-06	4680
bin	5.8384e-06	4766
bin	5.9096e-06	4679
bin	5.9808e-06	4613
bin	6.052e-06	4592
bin	6.1232e-06	4619
bin	6.1944e-06	4375
bin	6.2656e-06	4348
bin	6.3368e-06	4201
bin	6.408e-06	4157
bin	6.4792e-06	4133
bin	6.5504e-06	4104
bin	6.6216e-06	4212
bin	6.6928e-06	4036
bin	6.764e-06	4134
bin	6.8352e-06	4165
bin	6.9064e-06	3937
bin	6.9776e-06	3863
bin	7.0488e-06	3865
bin	7.12e-06	3889
bin	7.1912e-06	3781
bin	7.2624e-06	3742
bin	7.3336e-06	3750
bin	7.4048e-06	3786
bin	7.476e-06	3870
bin	7.5472e-06	3669
bin	7.6184e-06	3612
bin	7.6896e-06	3585
bin	7.7608e-06	3608
bin	7.832e-06	3514
bin	7.9032e-06	3574
bin	7.9744e-06	3485
bin	8.0456e-06	3402
bin	8.1168e-06	3421
bin	8.188e-06	3442
bin	8.2592e-06	3437
bin	8.3304e-06	3487
bin	8.4016e-06	3402
bin	8.4728e-06	3342
bin	8.544e-06	3341
bin	8.6152e-06	3264
bin	8.6864e-06	3191
bin	8.7576e-06	3239
bin	8.8288e-06	3252
bin	8.9e-06	3124
bin	8.9712e-06	3090
bin	9.0424e-06	3183
bin	9.1136e-06	3012
bin	9.1848e-06	3037
bin	9.256e-06	3105
bin	9.3272e-06	3169
bin	9.3984e-06	3080
bin	9.4696e-06	3074
bin	9.5408e-06	3106
bin	9.612e-06	3043
bin	9.6832e-06	3034
bin	9.7544e-06	2971
bin	9.8256e-06	2936
bin	9.8968e-06	2969
bin	9.968e-06	2915
bin	1.00392e-05	2944
bin	1.01104e-05	2941
bin	1.01816e-05	2917
bin	1.02528e-05	2858
bin	1.0324e-05	2793
bin	1.03952e-05	2747
bin	1.04664e-05	2887
bin	1.05376e-05	2752
bin	1.06088e-05	2870
bin	1.068e-05	2815
bin	1.07512e-05	2729
bin	1.08224e-05	2818
bin	1.08936e-05	2794
bin	1.09648e-05	2813
bin	1.1036e-05	2664
bin	1.11072e-05	2717
bin	1.11784e-05	2718
bin	1.12496e-05	2738
bin	1.13208e-05	2765
bin	1.1392e-05	2637
bin	1.14632e-05	2649
bin	1.15344e-05	2749
bin	1.16056e-05	2781
bin	1.16768e-05	2630
bin	1.1748e-05	2692
bin	1.18192e-05	2660
bin	1.18904e-05	2691
bin	1.19616e-05	2650
bin	1.20328e-05	2657
bin	1.2104e-05	2673
bin	1.21752e-05	2644
bin	1.22464e-05	2612
bin	1.23176e-05	2700
bin	1.23888e-05	2693
bin	1.246e-05	2633
bin	1.25312e-05	2577
bin	1.26024e-05	2548
bin	1.26736e-05	2532
bin	1.27448e-05	2607
bin	1.2816e-05	2546
bin	1.28872e-05	2525
bin	1.29584e-05	2592
bin	1.30296e-05	2541
bin	1.31008e-05	2528
bin	1.3172e-05	2544
bin	1.32432e-05	2482
bin	1.33144e-05	2423
bin	1.33856e-05	2430
bin	1.34568e-05	2361
bin	1.3528e-05	2454
bin	1.35992e-05	2488
bin	1.36704e-05	2577
bin	1.37416e-05	2551
bin	1.38128e-05	2538
bin	1.3884e-05	2489
bin	1.39552e-05	2552
bin	1.40264e-05	2505
bin	1.40976e-05	2453
bin	1.41688e-05	2423
bin	1.424e-05	2387
bin	1.43112e-05	2425
bin	1.43824e-05	2382
bin	1.44536e-05	2478
bin	1.45248e-05	2399
bin	1.4596e-05	2450
bin	1.46672e-05	2401
bin	1.47384e-05	2411
bin	1.48096e-05	2360
bin	1.48808e-05	2384
bin	1.4952e-05	2397
bin	1.50232e-05	2321
bin	1.50944e-05	2373
bin	1.51656e-05	2307
bin	1.52368e-05	2385
bin	1.5308e-05	2453
bin	1.53792e-05	2466
bin	1.54504e-05	2369
bin	1.55216e-05	2329
bin	1.55928e-05	2325
bin	1.5664e-05	2341
bin	1.57352e-05	2309
bin	1.58064e-05	2285
bin	1.58776e-05	2270
bin	1.59488e-05	2285
bin	1.602e-05	2317
bin	1.60912e-05	2278
bin	1.61624e-05	2241
bin	1.62336e-05	2247
bin	1.63048e-05	2294
bin	1.6376e-05	2194
bin	1.64472e-05	2204
bin	1.65184e-05	2236
bin	1.65896e-05	2243
bin	1.66608e-05	2186
bin	1.6732e-05	2273
bin	1.68032e-05	2163
bin	1.68744e-05	2170
bin	1.69456e-05	2202
bin	1.70168e-05	2088
bin	1.7088e-05	2177
bin	1.71592e-05	2204
bin	1.72304e-05	2176
bin	1.73016e-05	2212
bin	1.73728e-05	2115
bin	1.7444e-05	2056
bin	1.75152e-05	2081
bin	1.75864e-05	2118
bin	1.76576e-05	2102
bin	1.77288e-05	2057
bin	1.78e-05	2074
bin	1.78712e-05	2146
bin	1.79424e-05	2128
bin	1.80136e-05	2149
bin	1.80848e-05	2201
bin	1.8156e-05	2099
bin	1.82272e-05	2089
bin	1.82984e-05	2070
bin	1.83696e-05	2072
bin	1.84408e-05	2039
bin	1.8512e-05	2019
bin	1.85832e-05	2043
bin	1.86544e-05	2045
bin	1.87256e-05	2115
bin	1.87968e-05	2090
bin	1.8868e-05	2037
bin	1.89392e-05	2106
bin	1.90104e-05	2047
bin	1.90816e-05	2081
bin	1.91528e-05	2142
bin	1.9224e-05	2140
bin	1.92952e-05	2160
bin	1.93664e-05	2090
bin	1.94376e-05	2104
bin	1.95088e-05	2085
bin	1.958e-05	2129
bin	1.96512e-05	2130
bin	1.97224e-05	2188
bin	1.97936e-05	2131
bin	1.98648e-05	2217
bin	1.9936e-05	2167
bin	2.00072e-05	2113
bin	2.00784e-05	2147
bin	2.01496e-05	2115
bin	2.02208e-05	2088
bin	2.0292e-05	1992
bin	2.03632e-05	2051
bin	2.04344e-05	2070
bin	2.05056e-05	2096
bin	2.05768e-05	2138
bin	2.0648e-05	2115
bin	2.07192e-05	2087
bin	2.07904e-05	2132
bin	2.08616e-05	2009
bin	2.09328e-05	2075
bin	2.1004e-05	2070
bin	2.10752e-05	2080
bin	2.11464e-05	2095
bin	2.12176e-05	2053
bin	2.12888e-05	2091
bin	2.136e-05	2033
bin	2.14312e-05	2146
bin	2.15024e-05	2040
bin	2.15736e-05	2110
bin	2.16448e-05	2028
bin	2.1716e-05	2124
bin	2.17872e-05	2124
bin	2.18584e-05	2038
bin	2.19296e-05	2049
bin	2.20008e-05	2044
bin	2.2072e-05	2074
bin	2.21432e-05	2074
bin	2.22144e-05	2050
bin	2.22856e-05	2011
bin	2.23568e-05	1974
bin	2.2428e-05	1979
bin	2.24992e-05	1981
bin	2.25704e-05	2015
bin	2.26416e-05	1977
bin	2.27128e-05	2063
bin	2.2784e-05	1999
bin	2.28552e-05	2019
bin	2.29264e-05	2042
bin	2.29976e-05	2090
bin	2.30688e-05	2039
bin	2.314e-05	1953
bin	2.32112e-05	2042
bin	2.32824e-05	2050
bin	2.33536e-05	1949
bin	2.34248e-05	1980
bin	2.3496e-05	1963
bin	2.35672e-05	1965
bin	2.36384e-05	1979
bin	2.37096e-05	1985
bin	2.37808e-05	2031
bin	2.3852e-05	2009
bin	2.39232e-05	1993
bin	2.39944e-05	1962
bin	2.40656e-05	1923
bin	2.41368e-05	1898
bin	2.4208e-05	1962
bin	2.42792e-05	1978
bin	2.43504e-05	1948
bin	2.44216e-05	1959
bin	2.44928e-05	2001
bin	2.4564e-05	2044
bin	2.46352e-05	1981
bin	2.47064e-05	2002
bin	2.47776e-05	2008
bin	2.48488e-05	1991
bin	2.492e-05	2011
bin	2.49912e-05	2008
bin	2.50624e-05	1916
bin	2.51336e-05	1903
bin	2.52048e-05	1983
bin	2.5276e-05	1961
bin	2.53472e-05	1879
bin	2.54184e-05	1941
bin	2.54896e-05	1826
bin	2.55608e-05	1864
bin	2.5632e-05	1891
bin	2.57032e-05	1915
bin	2.57744e-05	1895
bin	2.58456e-05	1868
bin	2.59168e-05	1884
bin	2.5988e-05	1966
bin	2.60592e-05	1895
bin	2.61304e-05	1889
bin	2.62016e-05	1996
bin	2.62728e-05	1908
bin	2.6344e-05	1954
bin	2.64152e-05	2002
bin	2.64864e-05	2025
bin	2.65576e-05	1931
bin	2.66288e-05	1984
bin	2.67e-05	1858
bin	2.67712e-05	1903
bin	2.68424e-05	1953
bin	2.69136e-05	1940
bin	2.69848e-05	1964
bin	2.7056e-05	1971
bin	2.71272e-05	1966
bin	2.71984e-05	2012
bin	2.72696e-05	1942
bin	2.73408e-05	1901
bin	2.7412e-05	1965
bin	2.74832e-05	1960
bin	2.75544e-05	2027
bin	2.76256e-05	1948
bin	2.76968e-05	1897
bin	2.7768e-05	1990
bin	2.78392e-05	1971
bin	2.79104e-05	1981
bin	2.79816e-05	1973
bin	2.80528e-05	2035
bin	2.8124e-05	2019
bin	2.81952e-05	1964
bin	2.82664e-05	2016
bin	2.83376e-05	1985
bin	2.84088e-05	2027
bin	2.848e-05	1966
bin	2.85512e-05	1981
bin	2.86224e-05	2001
bin	2.86936e-05	2034
bin	2.87648e-05	2030
bin	2.8836e-05	2081
bin	2.89072e-05	2074
bin	2.89784e-05	1893
bin	2.90496e-05	1951
bin	2.91208e-05	2031
bin	2.9192e-05	2046
bin	2.92632e-05	2060
bin	2.93344e-05	2083
bin	2.94056e-05	2015
bin	2.94768e-05	2026
bin	2.9548e-05	2002
bin	2.96192e-05	1946
bin	2.96904e-05	2013
bin	2.97616e-05	1967
bin	2.98328e-05	2023
bin	2.9904e-05	1938
bin	2.99752e-05	1926
bin	3.00464e-05	1961
bin	3.01176e-05	1928
bin	3.01888e-05	1968
bin	3.026e-05	1936
bin	3.03312e-05	1861
bin	3.04024e-05	1919
bin	3.04736e-05	1998
bin	3.05448e-05	1922
bin	3.0616e-05	1860
bin	3.06872e-05	1905
bin	3.07584e-05	2006
bin	3.08296e-05	1968
bin	3.09008e-05	1957
bin	3.0972e-05	1966
bin	3.10432e-05	1959
bin	3.11144e-05	1920
bin	3.11856e-05	1954
bin	3.12568e-05	1961
bin	3.1328e-05	1942
bin	3.13992e-05	1898
bin	3.14704e-05	1950
bin	3.15416e-05	2004
bin	3.16128e-05	2028
bin	3.1684e-05	2030
bin	3.17552e-05	1957
bin	3.18264e-05	1971
bin	3.18976e-05	1931
bin	3.19688e-05	2050
bin	3.204e-05	2028
bin	3.21112e-05	2043
bin	3.21824e-05	1973
bin	3.22536e-05	1962
bin	3.23248e-05	1888
bin	3.2396e-05	1981
bin	3.24672e-05	1941
bin	3.25384e-05	1899
bin	3.26096e-05	1930
bin	3.26808e-05	1966
bin	3.2752e-05	1984
bin	3.28232e-05	2012
bin	3.28944e-05	2006
bin	3.29656e-05	2049
bin	3.30368e-05	2001
bin	3.3108e-05	2134
bin	3.31792e-05	2107
bin	3.32504e-05	2043
bin	3.33216e-05	1989
bin	3.33928e-05	1996
bin	3.3464e-05	1974
bin	3.35352e-05	2034
bin	3.36064e-05	2032
bin	3.36776e-05	2093
bin	3.37488e-05	2051
bin	3.382e-05	2010
bin	3.38912e-05	2077
bin	3.39624e-05	2022
bin	3.40336e-05	1979
bin	3.41048e-05	2020
bin	3.4176e-05	2064
bin	3.42472e-05	2022
bin	3.43184e-05	2078
bin	3.43896e-05	2091
bin	3.44608e-05	2118
bin	3.4532e-05	2045
bin	3.46032e-05	2048
bin	3.46744e-05	2060
bin	3.47456e-05	2035
bin	3.48168e-05	2045
bin	3.4888e-05	2091
bin	3.49592e-05	2107
bin	3.50304e-05	2136
bin	3.51016e-05	2101
bin	3.51728e-05	2052
bin	3.5244e-05	1998
bin	3.53152e-05	2009
bin	3.53864e-05	2054
bin	3.54576e-05	2088
bin	3.55288e-05	2050
bin	3.56e-05	4026276
statistic Torus3d_bub.timer 	"Life Times"
field count 6291456
field mean 0.00090936094845232
field stddev 0.00068771488693962
field sum 5721.204395306
field sqrsum 8.1781946063928
field min 5.2e-07
field max 0.002729175666665
bin	-INF	0
bin	0	35
bin	8.544e-07	686
bin	1.7088e-06	2143
bin	2.5632e-06	3662
bin	3.4176e-06	5488
bin	4.272e-06	7296
bin	5.1264e-06	9270
bin	5.9808e-06	11231
bin	6.8352e-06	12829
bin	7.6896e-06	14715
bin	8.544e-06	16519
bin	9.3984e-06	18405
bin	1.02528e-05	20242
bin	1.11072e-05	21166
bin	1.19616e-05	22417
bin	1.2816e-05	23928
bin	1.36704e-05	24891
bin	1.45248e-05	25654
bin	1.53792e-05	26710
bin	1.62336e-05	27413
bin	1.7088e-05	28286
bin	1.79424e-05	29155
bin	1.87968e-05	29430
bin	1.96512e-05	30255
bin	2.05056e-05	31240
bin	2.136e-05	32416
bin	2.22144e-05	33278
bin	2.30688e-05	34626
bin	2.39232e-05	35874
bin	2.47776e-05	36865
bin	2.5632e-05	36248
bin	2.64864e-05	35228
bin	2.73408e-05	33369
bin	2.81952e-05	31656
bin	2.90496e-05	29875
bin	2.9904e-05	27931
bin	3.07584e-05	25747
bin	3.16128e-05	23989
bin	3.24672e-05	22412
bin	3.33216e-05	20289
bin	3.4176e-05	18660
bin	3.50304e-05	17462
bin	3.58848e-05	15432
bin	3.67392e-05	14360
bin	3.75936e-05	13314
bin	3.8448e-05	12583
bin	3.93024e-05	12139
bin	4.01568e-05	11310
bin	4.10112e-05	11047
bin	4.18656e-05	10717
bin	4.272e-05	10240
bin	4.35744e-05	9761
bin	4.44288e-05	9563
bin	4.52832e-05	9409
bin	4.61376e-05	9166
bin	4.6992e-05	9012
bin	4.78464e-05	9078
bin	4.87008e-05	8756
bin	4.95552e-05	8706
bin	5.04096e-05	8603
bin	5.1264e-05	8375
bin	5.21184e-05	8114
bin	5.29728e-05	7722
bin	5.38272e-05	7517
bin	5.46816e-05	7133
bin	5.5536e-05	6972
bin	5.63904e-05	6475
bin	5.72448e-05	6382
bin	5.80992e-05	6056
bin	5.89536e-05	5771
bin	5.9808e-05	5637
bin	6.06624e-05	5534
bin	6.15168e-05	5368
bin	6.23712e-05	5147
bin	6.32256e-05	5091
bin	6.408e-05	4979
bin	6.49344e-05	4790
bin	6.57888e-05	4608
bin	6.66432e-05	4624
bin	6.74976e-05	4539
bin	6.8352e-05	4455
bin	6.92064e-05	4473
bin	7.00608e-05	4450
bin	7.09152e-05	4377
bin	7.17696e-05	4293
bin	7.2624e-05	4428
bin	7.34784e-05	4414
bin	7.43328e-05	4497
bin	7.51872e-05	4439
bin	7.60416e-05	4387
bin	7.6896e-05	4274
bin	7.77504e-05	4251
bin	7.86048e-05	4140
bin	7.94592e-05	4059
bin	8.03136e-05	3965
bin	8.1168e-05	4039
bin	8.20224e-05	3984
bin	8.28768e-05	3944
bin	8.37312e-05	3857
bin	8.45856e-05	3655
bin	8.544e-05	3559
bin	8.62944e-05	3392
bin	8.71488e-05	3370
bin	8.80032e-05	3354
bin	8.88576e-05	3306
bin	8.9712e-05	3356
bin	9.05664e-05	3305
bin	9.14208e-05	3172
bin	9.22752e-05	3206
bin	9.31296e-05	3172
bin	9.3984e-05	3208
bin	9.48384e-05	3094
bin	9.56928e-05	3257
bin	9.65472e-05	3270
bin	9.74016e-05	3350
bin	9.8256e-05	3303
bin	9.91104e-05	3350
bin	9.99648e-05	3275
bin	0.0001008192	3250
bin	0.0001016736	3265
bin	0.000102528	3291
bin	0.0001033824	3267
bin	0.0001042368	3192
bin	0.0001050912	3136
bin	0.0001059456	3128
bin	0.0001068	2996
bin	0.0001076544	3008
bin	0.0001085088	2920
bin	0.0001093632	2952
bin	0.0001102176	2903
bin	0.000111072	2870
bin	0.0001119264	2841
bin	0.0001127808	2689
bin	0.0001136352	2688
bin	0.0001144896	2671
bin	0.000115344	2689
bin	0.0001161984	2620
bin	0.0001170528	2554
bin	0.0001179072	2558
bin	0.0001187616	2669
bin	0.000119616	2644
bin	0.0001204704	2720
bin	0.0001213248	2666
bin	0.0001221792	2825
bin	0.0001230336	2746
bin	0.000123888	2812
bin	0.0001247424	2741
bin	0.0001255968	2791
bin	0.0001264512	2812
bin	0.0001273056	2791
bin	0.00012816	2741
bin	0.0001290144	2694
bin	0.0001298688	2675
bin	0.0001307232	2601
bin	0.0001315776	2663
bin	0.000132432	2569
bin	0.0001332864	2519
bin	0.0001341408	2354
bin	0.0001349952	2370
bin	0.0001358496	2339
bin	0.000136704	2362
bin	0.0001375584	2287
bin	0.0001384128	2275
bin	0.0001392672	2290
bin	0.0001401216	2293
bin	0.000140976	2383
bin	0.0001418304	2302
bin	0.0001426848	2366
bin	0.0001435392	2419
bin	0.0001443936	2488
bin	0.000145248	2401
bin	0.0001461024	2482
bin	0.0001469568	2400
bin	0.0001478112	2410
bin	0.0001486656	2450
bin	0.00014952	2532
bin	0.0001503744	2435
bin	0.0001512288	2483
bin	0.0001520832	2458
bin	0.0001529376	2347
bin	0.000153792	2342
bin	0.0001546464	2323
bin	0.0001555008	2243
bin	0.0001563552	2279
bin	0.0001572096	2255
bin	0.000158064	2262
bin	0.0001589184	2243
bin	0.0001597728	2211
bin	0.0001606272	2348
bin	0.0001614816	2267
bin	0.000162336	2174
bin	0.0001631904	2227
bin	0.0001640448	2144
bin	0.0001648992	2110
bin	0.0001657536	2124
bin	0.000166608	2175
bin	0.0001674624	2181
bin	0.0001683168	2235
bin	0.0001691712	2238
bin	0.0001700256	2271
bin	0.00017088	2211
bin	0.0001717344	2316
bin	0.0001725888	2293
bin	0.0001734432	2243
bin	0.0001742976	2245
bin	0.000175152	2237
bin	0.0001760064	2150
bin	0.0001768608	2289
bin	0.0001777152	2242
bin	0.0001785696	2273
bin	0.000179424	2256
bin	0.0001802784	2212
bin	0.0001811328	2250
bin	0.0001819872	2127
bin	0.0001828416	2111
bin	0.000183696	2138
bin	0.0001845504	2145
bin	0.0001854048	2113
bin	0.0001862592	2020
bin	0.0001871136	2018
bin	0.000187968	1933
bin	0.0001888224	2022
bin	0.0001896768	2006
bin	0.0001905312	2010
bin	0.0001913856	2053
bin	0.00019224	2026
bin	0.0001930944	2018
bin	0.0001939488	2087
bin	0.0001948032	2132
bin	0.0001956576	2171
bin	0.000196512	2153
bin	0.0001973664	2125
bin	0.0001982208	2128
bin	0.0001990752	2206
bin	0.0001999296	2181
bin	0.000200784	2241
bin	0.0002016384	2187
bin	0.0002024928	2160
bin	0.0002033472	2094
bin	0.0002042016	2089
bin	0.000205056	2085
bin	0.0002059104	2081
bin	0.0002067648	2011
bin	0.0002076192	2020
bin	0.0002084736	1949
bin	0.000209328	1932
bin	0.0002101824	1904
bin	0.0002110368	1874
bin	0.0002118912	1895
bin	0.0002127456	1845
bin	0.0002136	1851
bin	0.0002144544	1886
bin	0.0002153088	1812
bin	0.0002161632	1818
bin	0.0002170176	1838
bin	0.000217872	1896
bin	0.0002187264	1876
bin	0.0002195808	1932
bin	0.0002204352	1953
bin	0.0002212896	1941
bin	0.000222144	1865
bin	0.0002229984	1911
bin	0.0002238528	1844
bin	0.0002247072	1882
bin	0.0002255616	1883
bin	0.000226416	1872
bin	0.0002272704	1809
bin	0.0002281248	1912
bin	0.0002289792	1848
bin	0.0002298336	1867
bin	0.000230688	1835
bin	0.0002315424	1755
bin	0.0002323968	1721
bin	0.0002332512	1748
bin	0.0002341056	1685
bin	0.00023496	1775
bin	0.0002358144	1782
bin	0.0002366688	1689
bin	0.0002375232	1685
bin	0.0002383776	1737
bin	0.000239232	1738
bin	0.0002400864	1669
bin	0.0002409408	1685
bin	0.0002417952	1692
bin	0.0002426496	1690
bin	0.000243504	1718
bin	0.0002443584	1677
bin	0.0002452128	1793
bin	0.0002460672	1803
bin	0.0002469216	1787
bin	0.000247776	1827
bin	0.0002486304	1766
bin	0.0002494848	1829
bin	0.0002503392	1741
bin	0.0002511936	1796
bin	0.000252048	1764
bin	0.0002529024	1722
bin	0.0002537568	1682
bin	0.0002546112	1765
bin	0.0002554656	1724
bin	0.00025632	1758
bin	0.0002571744	1751
bin	0.0002580288	1666
bin	0.0002588832	1599
bin	0.0002597376	1630
bin	0.000260592	1599
bin	0.0002614464	1575
bin	0.0002623008	1588
bin	0.0002631552	1560
bin	0.0002640096	1570
bin	0.000264864	1631
bin	0.0002657184	1603
bin	0.0002665728	1571
bin	0.0002674272	1638
bin	0.0002682816	1621
bin	0.000269136	1643
bin	0.0002699904	1732
bin	0.0002708448	1675
bin	0.0002716992	1774
bin	0.0002725536	1722
bin	0.000273408	1623
bin	0.0002742624	1610
bin	0.0002751168	1571
bin	0.0002759712	1613
bin	0.0002768256	1617
bin	0.00027768	1618
bin	0.0002785344	1642
bin	0.0002793888	1653
bin	0.0002802432	1544
bin	0.0002810976	1539
bin	0.000281952	1524
bin	0.0002828064	1508
bin	0.0002836608	1545
bin	0.0002845152	1483
bin	0.0002853696	1500
bin	0.000286224	1522
bin	0.0002870784	1511
bin	0.0002879328	1543
bin	0.0002887872	1547
bin	0.0002896416	1538
bin	0.000290496	1521
bin	0.0002913504	1567
bin	0.0002922048	1541
bin	0.0002930592	1568
bin	0.0002939136	1539
bin	0.000294768	1586
bin	0.0002956224	1613
bin	0.0002964768	1612
bin	0.0002973312	1564
bin	0.0002981856	1638
bin	0.00029904	1610
bin	0.0002998944	1574
bin	0.0003007488	1564
bin	0.0003016032	1564
bin	0.0003024576	1612
bin	0.000303312	1562
bin	0.0003041664	1501
bin	0.0003050208	1526
bin	0.0003058752	1528
bin	0.0003067296	1538
bin	0.000307584	1440
bin	0.0003084384	1477
bin	0.0003092928	1529
bin	0.0003101472	1429
bin	0.0003110016	1465
bin	0.000311856	1465
bin	0.0003127104	1468
bin	0.0003135648	1434
bin	0.0003144192	1462
bin	0.0003152736	1514
bin	0.000316128	1455
bin	0.0003169824	1422
bin	0.0003178368	1518
bin	0.0003186912	1516
bin	0.0003195456	1552
bin	0.0003204	1605
bin	0.0003212544	1592
bin	0.0003221088	1620
bin	0.0003229632	1614
bin	0.0003238176	1595
bin	0.000324672	1622
bin	0.0003255264	1576
bin	0.0003263808	1560
bin	0.0003272352	1500
bin	0.0003280896	1524
bin	0.000328944	1540
bin	0.0003297984	1485
bin	0.0003306528	1566
bin	0.0003315072	1512
bin	0.0003323616	1502
bin	0.000333216	1493
bin	0.0003340704	1482
bin	0.0003349248	1438
bin	0.0003357792	1470
bin	0.0003366336	1466
bin	0.000337488	1425
bin	0.0003383424	1457
bin	0.0003391968	1491
bin	0.0003400512	1455
bin	0.0003409056	1459
bin	0.00034176	1564
bin	0.0003426144	1589
bin	0.0003434688	1590
bin	0.0003443232	1605
bin	0.0003451776	1509
bin	0.000346032	1527
bin	0.0003468864	1504
bin	0.0003477408	1562
bin	0.0003485952	1495
bin	0.0003494496	1547
bin	0.000350304	1504
bin	0.0003511584	1552
bin	0.0003520128	1565
bin	0.0003528672	1544
bin	0.0003537216	1536
bin	0.000354576	1490
bin	0.0003554304	1489
bin	0.0003562848	1422
bin	0.0003571392	1439
bin	0.0003579936	1413
bin	0.000358848	1403
bin	0.0003597024	1354
bin	0.0003605568	1404
bin	0.0003614112	1434
bin	0.0003622656	1427
bin	0.00036312	1434
bin	0.0003639744	1396
bin	0.0003648288	1422
bin	0.0003656832	1429
bin	0.0003665376	1467
bin	0.000367392	1452
bin	0.0003682464	1520
bin	0.0003691008	1536
bin	0.0003699552	1547
bin	0.0003708096	1511
bin	0.000371664	1500
bin	0.0003725184	1497
bin	0.0003733728	1501
bin	0.0003742272	1560
bin	0.0003750816	1521
bin	0.000375936	1580
bin	0.0003767904	1460
bin	0.0003776448	1524
bin	0.0003784992	1508
bin	0.0003793536	1487
bin	0.000380208	1444
bin	0.0003810624	1514
bin	0.0003819168	1433
bin	0.0003827712	1450
bin	0.0003836256	1437
bin	0.00038448	1384
bin	0.0003853344	1466
bin	0.0003861888	1420
bin	0.0003870432	1474
bin	0.0003878976	1414
bin	0.000388752	1505
bin	0.0003896064	1506
bin	0.0003904608	1572
bin	0.0003913152	1523
bin	0.0003921696	1498
bin	0.000393024	1579
bin	0.0003938784	1586
bin	0.0003947328	1579
bin	0.0003955872	1533
bin	0.0003964416	1556
bin	0.000397296	1597
bin	0.0003981504	1559
bin	0.0003990048	1583
bin	0.0003998592	1579
bin	0.0004007136	1502
bin	0.000401568	1574
bin	0.0004024224	1497
bin	0.0004032768	1550
bin	0.0004041312	1469
bin	0.0004049856	1423
bin	0.00040584	1461
bin	0.0004066944	1486
bin	0.0004075488	1467
bin	0.0004084032	1489
bin	0.0004092576	1474
bin	0.000410112	1477
bin	0.0004109664	1405
bin	0.0004118208	1424
bin	0.0004126752	1453
bin	0.0004135296	1433
bin	0.000414384	1476
bin	0.0004152384	1486
bin	0.0004160928	1417
bin	0.0004169472	1449
bin	0.0004178016	1485
bin	0.000418656	1493
bin	0.0004195104	1496
bin	0.0004203648	1487
bin	0.0004212192	1410
bin	0.0004220736	1499
bin	0.000422928	1416
bin	0.0004237824	1465
bin	0.0004246368	1429
bin	0.0004254912	1471
bin	0.0004263456	1420
bin	0.0004272	4185053
