version 2
run Permutation-18-20120710-21:12:02-28078
attr alg 2
attr buf 8
attr configname Permutation
attr datetime 20120710-21:12:02
attr delta 1
attr experiment Permutation
attr ext true
attr inifile altro.ini
attr iterationvars "$buf=8, $ext=true, $ofedge=1, $delta=1, $alg=2"
attr iterationvars2 "$buf=8, $ext=true, $ofedge=1, $delta=1, $alg=2, $repetition=0"
attr measurement "$buf=8, $ext=true, $ofedge=1, $delta=1, $alg=2"
attr network Torus3d_bub
attr ofedge 1
attr processid 28078
attr repetition 0
attr replication #0
attr resultdir altro-results
attr runnumber 18
attr seedset 18

scalar . 	alg 	2
scalar . 	buf 	8
scalar . 	delta 	1
scalar . 	ofedge 	1
scalar Torus3d_bub.timer 	#endTime 	0.00283837566256
scalar Torus3d_bub.timer 	#totalHops 	89921432
scalar Torus3d_bub.timer 	#totalPacks 	6291456
scalar Torus3d_bub.timer 	#totalDerouted 	1983283
scalar Torus3d_bub.timer 	#totalOutFlanked 	0
scalar Torus3d_bub.timer 	#totalCQRed 	1983283
scalar Torus3d_bub.timer 	#LB 	0.000786432
scalar Torus3d_bub.timer 	#ratio 	0.27707114684414
statistic Torus3d_bub.timer 	"Hop Times"
field count 6291456
field mean 7.4117083817717e-05
field stddev 7.6055184603164e-05
field sum 466.30437168748
field sqrsum 0.07095335654057
field min 4.07272726e-07
field max 0.00146483933333
bin	-INF	0
bin	0	0
bin	7.12e-08	0
bin	1.424e-07	0
bin	2.136e-07	0
bin	2.848e-07	0
bin	3.56e-07	24
bin	4.272e-07	963
bin	4.984e-07	3616
bin	5.696e-07	5293
bin	6.408e-07	6873
bin	7.12e-07	8501
bin	7.832e-07	10561
bin	8.544e-07	12470
bin	9.256e-07	14330
bin	9.968e-07	16353
bin	1.068e-06	18595
bin	1.1392e-06	20643
bin	1.2104e-06	23316
bin	1.2816e-06	25886
bin	1.3528e-06	28852
bin	1.424e-06	32165
bin	1.4952e-06	35521
bin	1.5664e-06	38482
bin	1.6376e-06	41534
bin	1.7088e-06	43342
bin	1.78e-06	43849
bin	1.8512e-06	44216
bin	1.9224e-06	43568
bin	1.9936e-06	42272
bin	2.0648e-06	40361
bin	2.136e-06	38240
bin	2.2072e-06	36136
bin	2.2784e-06	33671
bin	2.3496e-06	31468
bin	2.4208e-06	29527
bin	2.492e-06	27464
bin	2.5632e-06	25634
bin	2.6344e-06	23905
bin	2.7056e-06	22272
bin	2.7768e-06	20570
bin	2.848e-06	19141
bin	2.9192e-06	18063
bin	2.9904e-06	16778
bin	3.0616e-06	15718
bin	3.1328e-06	14924
bin	3.204e-06	14143
bin	3.2752e-06	13371
bin	3.3464e-06	12714
bin	3.4176e-06	12170
bin	3.4888e-06	11634
bin	3.56e-06	11002
bin	3.6312e-06	10781
bin	3.7024e-06	10186
bin	3.7736e-06	9597
bin	3.8448e-06	9320
bin	3.916e-06	8931
bin	3.9872e-06	8628
bin	4.0584e-06	8502
bin	4.1296e-06	8237
bin	4.2008e-06	7949
bin	4.272e-06	7815
bin	4.3432e-06	7512
bin	4.4144e-06	7269
bin	4.4856e-06	7134
bin	4.5568e-06	6974
bin	4.628e-06	6623
bin	4.6992e-06	6551
bin	4.7704e-06	6423
bin	4.8416e-06	6279
bin	4.9128e-06	6097
bin	4.984e-06	6087
bin	5.0552e-06	6023
bin	5.1264e-06	5894
bin	5.1976e-06	5662
bin	5.2688e-06	5590
bin	5.34e-06	5479
bin	5.4112e-06	5489
bin	5.4824e-06	5326
bin	5.5536e-06	5286
bin	5.6248e-06	5212
bin	5.696e-06	5188
bin	5.7672e-06	4957
bin	5.8384e-06	4833
bin	5.9096e-06	4941
bin	5.9808e-06	4715
bin	6.052e-06	4851
bin	6.1232e-06	4698
bin	6.1944e-06	4627
bin	6.2656e-06	4534
bin	6.3368e-06	4449
bin	6.408e-06	4428
bin	6.4792e-06	4503
bin	6.5504e-06	4434
bin	6.6216e-06	4354
bin	6.6928e-06	4431
bin	6.764e-06	4346
bin	6.8352e-06	4263
bin	6.9064e-06	4236
bin	6.9776e-06	4125
bin	7.0488e-06	4172
bin	7.12e-06	4177
bin	7.1912e-06	4112
bin	7.2624e-06	3999
bin	7.3336e-06	4045
bin	7.4048e-06	3902
bin	7.476e-06	3849
bin	7.5472e-06	3774
bin	7.6184e-06	3797
bin	7.6896e-06	3706
bin	7.7608e-06	3736
bin	7.832e-06	3654
bin	7.9032e-06	3641
bin	7.9744e-06	3671
bin	8.0456e-06	3686
bin	8.1168e-06	3534
bin	8.188e-06	3541
bin	8.2592e-06	3576
bin	8.3304e-06	3502
bin	8.4016e-06	3536
bin	8.4728e-06	3528
bin	8.544e-06	3542
bin	8.6152e-06	3333
bin	8.6864e-06	3474
bin	8.7576e-06	3412
bin	8.8288e-06	3397
bin	8.9e-06	3375
bin	8.9712e-06	3426
bin	9.0424e-06	3313
bin	9.1136e-06	3288
bin	9.1848e-06	3228
bin	9.256e-06	3230
bin	9.3272e-06	3230
bin	9.3984e-06	3236
bin	9.4696e-06	3208
bin	9.5408e-06	3090
bin	9.612e-06	3178
bin	9.6832e-06	3197
bin	9.7544e-06	3140
bin	9.8256e-06	3118
bin	9.8968e-06	3062
bin	9.968e-06	3030
bin	1.00392e-05	2955
bin	1.01104e-05	2914
bin	1.01816e-05	2941
bin	1.02528e-05	2878
bin	1.0324e-05	2860
bin	1.03952e-05	2801
bin	1.04664e-05	2870
bin	1.05376e-05	2778
bin	1.06088e-05	2773
bin	1.068e-05	2825
bin	1.07512e-05	2777
bin	1.08224e-05	2820
bin	1.08936e-05	2786
bin	1.09648e-05	2717
bin	1.1036e-05	2699
bin	1.11072e-05	2612
bin	1.11784e-05	2670
bin	1.12496e-05	2747
bin	1.13208e-05	2718
bin	1.1392e-05	2615
bin	1.14632e-05	2706
bin	1.15344e-05	2581
bin	1.16056e-05	2613
bin	1.16768e-05	2618
bin	1.1748e-05	2637
bin	1.18192e-05	2520
bin	1.18904e-05	2531
bin	1.19616e-05	2547
bin	1.20328e-05	2533
bin	1.2104e-05	2527
bin	1.21752e-05	2494
bin	1.22464e-05	2398
bin	1.23176e-05	2469
bin	1.23888e-05	2526
bin	1.246e-05	2423
bin	1.25312e-05	2501
bin	1.26024e-05	2430
bin	1.26736e-05	2385
bin	1.27448e-05	2375
bin	1.2816e-05	2440
bin	1.28872e-05	2314
bin	1.29584e-05	2419
bin	1.30296e-05	2437
bin	1.31008e-05	2340
bin	1.3172e-05	2395
bin	1.32432e-05	2336
bin	1.33144e-05	2356
bin	1.33856e-05	2340
bin	1.34568e-05	2323
bin	1.3528e-05	2285
bin	1.35992e-05	2331
bin	1.36704e-05	2264
bin	1.37416e-05	2389
bin	1.38128e-05	2175
bin	1.3884e-05	2268
bin	1.39552e-05	2313
bin	1.40264e-05	2205
bin	1.40976e-05	2185
bin	1.41688e-05	2214
bin	1.424e-05	2164
bin	1.43112e-05	2107
bin	1.43824e-05	2095
bin	1.44536e-05	2181
bin	1.45248e-05	2164
bin	1.4596e-05	2182
bin	1.46672e-05	2136
bin	1.47384e-05	2137
bin	1.48096e-05	2106
bin	1.48808e-05	2151
bin	1.4952e-05	2136
bin	1.50232e-05	2112
bin	1.50944e-05	2184
bin	1.51656e-05	2186
bin	1.52368e-05	2071
bin	1.5308e-05	2116
bin	1.53792e-05	2172
bin	1.54504e-05	2129
bin	1.55216e-05	2107
bin	1.55928e-05	2171
bin	1.5664e-05	2116
bin	1.57352e-05	2044
bin	1.58064e-05	2148
bin	1.58776e-05	2186
bin	1.59488e-05	2120
bin	1.602e-05	2122
bin	1.60912e-05	2189
bin	1.61624e-05	2111
bin	1.62336e-05	2105
bin	1.63048e-05	2184
bin	1.6376e-05	2137
bin	1.64472e-05	2143
bin	1.65184e-05	2099
bin	1.65896e-05	2081
bin	1.66608e-05	2138
bin	1.6732e-05	1993
bin	1.68032e-05	1961
bin	1.68744e-05	2064
bin	1.69456e-05	2034
bin	1.70168e-05	2027
bin	1.7088e-05	2025
bin	1.71592e-05	1975
bin	1.72304e-05	2046
bin	1.73016e-05	2100
bin	1.73728e-05	2079
bin	1.7444e-05	2067
bin	1.75152e-05	2016
bin	1.75864e-05	2022
bin	1.76576e-05	1951
bin	1.77288e-05	1957
bin	1.78e-05	1932
bin	1.78712e-05	1896
bin	1.79424e-05	1901
bin	1.80136e-05	1826
bin	1.80848e-05	1862
bin	1.8156e-05	1873
bin	1.82272e-05	1839
bin	1.82984e-05	1851
bin	1.83696e-05	1888
bin	1.84408e-05	1925
bin	1.8512e-05	1888
bin	1.85832e-05	1983
bin	1.86544e-05	1968
bin	1.87256e-05	1987
bin	1.87968e-05	1945
bin	1.8868e-05	1910
bin	1.89392e-05	1888
bin	1.90104e-05	1882
bin	1.90816e-05	1911
bin	1.91528e-05	1932
bin	1.9224e-05	1821
bin	1.92952e-05	1891
bin	1.93664e-05	1886
bin	1.94376e-05	1939
bin	1.95088e-05	1892
bin	1.958e-05	1839
bin	1.96512e-05	1779
bin	1.97224e-05	1841
bin	1.97936e-05	1764
bin	1.98648e-05	1824
bin	1.9936e-05	1803
bin	2.00072e-05	1799
bin	2.00784e-05	1834
bin	2.01496e-05	1826
bin	2.02208e-05	1781
bin	2.0292e-05	1845
bin	2.03632e-05	1841
bin	2.04344e-05	1791
bin	2.05056e-05	1792
bin	2.05768e-05	1788
bin	2.0648e-05	1789
bin	2.07192e-05	1806
bin	2.07904e-05	1761
bin	2.08616e-05	1828
bin	2.09328e-05	1836
bin	2.1004e-05	1836
bin	2.10752e-05	1833
bin	2.11464e-05	1864
bin	2.12176e-05	1903
bin	2.12888e-05	1886
bin	2.136e-05	1818
bin	2.14312e-05	1866
bin	2.15024e-05	1883
bin	2.15736e-05	1782
bin	2.16448e-05	1785
bin	2.1716e-05	1783
bin	2.17872e-05	1764
bin	2.18584e-05	1819
bin	2.19296e-05	1808
bin	2.20008e-05	1761
bin	2.2072e-05	1812
bin	2.21432e-05	1767
bin	2.22144e-05	1782
bin	2.22856e-05	1716
bin	2.23568e-05	1683
bin	2.2428e-05	1712
bin	2.24992e-05	1828
bin	2.25704e-05	1746
bin	2.26416e-05	1779
bin	2.27128e-05	1744
bin	2.2784e-05	1789
bin	2.28552e-05	1746
bin	2.29264e-05	1718
bin	2.29976e-05	1754
bin	2.30688e-05	1717
bin	2.314e-05	1611
bin	2.32112e-05	1628
bin	2.32824e-05	1667
bin	2.33536e-05	1581
bin	2.34248e-05	1765
bin	2.3496e-05	1710
bin	2.35672e-05	1680
bin	2.36384e-05	1725
bin	2.37096e-05	1740
bin	2.37808e-05	1789
bin	2.3852e-05	1640
bin	2.39232e-05	1687
bin	2.39944e-05	1603
bin	2.40656e-05	1611
bin	2.41368e-05	1647
bin	2.4208e-05	1707
bin	2.42792e-05	1662
bin	2.43504e-05	1765
bin	2.44216e-05	1803
bin	2.44928e-05	1795
bin	2.4564e-05	1846
bin	2.46352e-05	1814
bin	2.47064e-05	1845
bin	2.47776e-05	1832
bin	2.48488e-05	1863
bin	2.492e-05	1907
bin	2.49912e-05	1886
bin	2.50624e-05	1788
bin	2.51336e-05	1788
bin	2.52048e-05	1780
bin	2.5276e-05	1697
bin	2.53472e-05	1733
bin	2.54184e-05	1757
bin	2.54896e-05	1813
bin	2.55608e-05	1840
bin	2.5632e-05	1844
bin	2.57032e-05	1766
bin	2.57744e-05	1753
bin	2.58456e-05	1689
bin	2.59168e-05	1749
bin	2.5988e-05	1864
bin	2.60592e-05	1828
bin	2.61304e-05	1819
bin	2.62016e-05	1827
bin	2.62728e-05	1798
bin	2.6344e-05	1865
bin	2.64152e-05	1884
bin	2.64864e-05	1837
bin	2.65576e-05	1955
bin	2.66288e-05	2020
bin	2.67e-05	1983
bin	2.67712e-05	1854
bin	2.68424e-05	1903
bin	2.69136e-05	1914
bin	2.69848e-05	1873
bin	2.7056e-05	1824
bin	2.71272e-05	1850
bin	2.71984e-05	1824
bin	2.72696e-05	1761
bin	2.73408e-05	1807
bin	2.7412e-05	1828
bin	2.74832e-05	1788
bin	2.75544e-05	1811
bin	2.76256e-05	1858
bin	2.76968e-05	1817
bin	2.7768e-05	1843
bin	2.78392e-05	1914
bin	2.79104e-05	1871
bin	2.79816e-05	1849
bin	2.80528e-05	1838
bin	2.8124e-05	1820
bin	2.81952e-05	1887
bin	2.82664e-05	1916
bin	2.83376e-05	1917
bin	2.84088e-05	1976
bin	2.848e-05	1889
bin	2.85512e-05	1868
bin	2.86224e-05	1855
bin	2.86936e-05	1810
bin	2.87648e-05	1797
bin	2.8836e-05	1785
bin	2.89072e-05	1803
bin	2.89784e-05	1713
bin	2.90496e-05	1782
bin	2.91208e-05	1851
bin	2.9192e-05	1833
bin	2.92632e-05	1779
bin	2.93344e-05	1801
bin	2.94056e-05	1789
bin	2.94768e-05	1846
bin	2.9548e-05	1821
bin	2.96192e-05	1821
bin	2.96904e-05	1770
bin	2.97616e-05	1795
bin	2.98328e-05	1768
bin	2.9904e-05	1778
bin	2.99752e-05	1759
bin	3.00464e-05	1854
bin	3.01176e-05	1761
bin	3.01888e-05	1858
bin	3.026e-05	1843
bin	3.03312e-05	1856
bin	3.04024e-05	1747
bin	3.04736e-05	1806
bin	3.05448e-05	1820
bin	3.0616e-05	1774
bin	3.06872e-05	1713
bin	3.07584e-05	1875
bin	3.08296e-05	1869
bin	3.09008e-05	1796
bin	3.0972e-05	1879
bin	3.10432e-05	1767
bin	3.11144e-05	1779
bin	3.11856e-05	1798
bin	3.12568e-05	1813
bin	3.1328e-05	1861
bin	3.13992e-05	1836
bin	3.14704e-05	1871
bin	3.15416e-05	1809
bin	3.16128e-05	1815
bin	3.1684e-05	1756
bin	3.17552e-05	1881
bin	3.18264e-05	1905
bin	3.18976e-05	1906
bin	3.19688e-05	1896
bin	3.204e-05	1825
bin	3.21112e-05	1885
bin	3.21824e-05	1863
bin	3.22536e-05	1902
bin	3.23248e-05	1865
bin	3.2396e-05	1927
bin	3.24672e-05	1921
bin	3.25384e-05	1930
bin	3.26096e-05	1963
bin	3.26808e-05	1885
bin	3.2752e-05	1881
bin	3.28232e-05	1899
bin	3.28944e-05	1848
bin	3.29656e-05	1775
bin	3.30368e-05	1906
bin	3.3108e-05	1905
bin	3.31792e-05	1825
bin	3.32504e-05	1868
bin	3.33216e-05	1881
bin	3.33928e-05	1973
bin	3.3464e-05	1884
bin	3.35352e-05	1905
bin	3.36064e-05	1902
bin	3.36776e-05	1839
bin	3.37488e-05	1855
bin	3.382e-05	1876
bin	3.38912e-05	1953
bin	3.39624e-05	1915
bin	3.40336e-05	1856
bin	3.41048e-05	1967
bin	3.4176e-05	1878
bin	3.42472e-05	1915
bin	3.43184e-05	1944
bin	3.43896e-05	1980
bin	3.44608e-05	1883
bin	3.4532e-05	1879
bin	3.46032e-05	1805
bin	3.46744e-05	1825
bin	3.47456e-05	1935
bin	3.48168e-05	1916
bin	3.4888e-05	1930
bin	3.49592e-05	1891
bin	3.50304e-05	1886
bin	3.51016e-05	1915
bin	3.51728e-05	1892
bin	3.5244e-05	1884
bin	3.53152e-05	1890
bin	3.53864e-05	1949
bin	3.54576e-05	1867
bin	3.55288e-05	1894
bin	3.56e-05	4087075
statistic Torus3d_bub.timer 	"Life Times"
field count 6291456
field mean 0.00094623898545279
field stddev 0.00070985551715031
field sum 5953.2209424609
field sqrsum 8.8034015511736
field min 6.22333333e-07
field max 0.00278453666254
bin	-INF	0
bin	0	26
bin	8.544e-07	690
bin	1.7088e-06	2240
bin	2.5632e-06	3664
bin	3.4176e-06	5356
bin	4.272e-06	7196
bin	5.1264e-06	9013
bin	5.9808e-06	10907
bin	6.8352e-06	12656
bin	7.6896e-06	14334
bin	8.544e-06	16141
bin	9.3984e-06	17929
bin	1.02528e-05	19725
bin	1.11072e-05	20931
bin	1.19616e-05	22038
bin	1.2816e-05	23433
bin	1.36704e-05	24294
bin	1.45248e-05	24904
bin	1.53792e-05	25782
bin	1.62336e-05	26495
bin	1.7088e-05	27592
bin	1.79424e-05	28030
bin	1.87968e-05	28714
bin	1.96512e-05	29467
bin	2.05056e-05	30475
bin	2.136e-05	31479
bin	2.22144e-05	32718
bin	2.30688e-05	34024
bin	2.39232e-05	34891
bin	2.47776e-05	36026
bin	2.5632e-05	35646
bin	2.64864e-05	34438
bin	2.73408e-05	32769
bin	2.81952e-05	31379
bin	2.90496e-05	29469
bin	2.9904e-05	27506
bin	3.07584e-05	25444
bin	3.16128e-05	23945
bin	3.24672e-05	22223
bin	3.33216e-05	20419
bin	3.4176e-05	18501
bin	3.50304e-05	17070
bin	3.58848e-05	15677
bin	3.67392e-05	14452
bin	3.75936e-05	13746
bin	3.8448e-05	12751
bin	3.93024e-05	12091
bin	4.01568e-05	11544
bin	4.10112e-05	11112
bin	4.18656e-05	10514
bin	4.272e-05	10240
bin	4.35744e-05	9879
bin	4.44288e-05	9749
bin	4.52832e-05	9441
bin	4.61376e-05	9200
bin	4.6992e-05	9128
bin	4.78464e-05	8967
bin	4.87008e-05	8965
bin	4.95552e-05	8605
bin	5.04096e-05	8674
bin	5.1264e-05	8363
bin	5.21184e-05	8054
bin	5.29728e-05	7852
bin	5.38272e-05	7576
bin	5.46816e-05	7308
bin	5.5536e-05	6929
bin	5.63904e-05	6708
bin	5.72448e-05	6539
bin	5.80992e-05	6158
bin	5.89536e-05	6059
bin	5.9808e-05	5835
bin	6.06624e-05	5711
bin	6.15168e-05	5503
bin	6.23712e-05	5232
bin	6.32256e-05	5105
bin	6.408e-05	5044
bin	6.49344e-05	4841
bin	6.57888e-05	4803
bin	6.66432e-05	4835
bin	6.74976e-05	4692
bin	6.8352e-05	4721
bin	6.92064e-05	4621
bin	7.00608e-05	4700
bin	7.09152e-05	4613
bin	7.17696e-05	4728
bin	7.2624e-05	4660
bin	7.34784e-05	4582
bin	7.43328e-05	4556
bin	7.51872e-05	4532
bin	7.60416e-05	4575
bin	7.6896e-05	4617
bin	7.77504e-05	4501
bin	7.86048e-05	4452
bin	7.94592e-05	4372
bin	8.03136e-05	4346
bin	8.1168e-05	4195
bin	8.20224e-05	4180
bin	8.28768e-05	4033
bin	8.37312e-05	4065
bin	8.45856e-05	3869
bin	8.544e-05	3808
bin	8.62944e-05	3778
bin	8.71488e-05	3574
bin	8.80032e-05	3630
bin	8.88576e-05	3559
bin	8.9712e-05	3507
bin	9.05664e-05	3483
bin	9.14208e-05	3473
bin	9.22752e-05	3534
bin	9.31296e-05	3421
bin	9.3984e-05	3446
bin	9.48384e-05	3434
bin	9.56928e-05	3444
bin	9.65472e-05	3506
bin	9.74016e-05	3554
bin	9.8256e-05	3573
bin	9.91104e-05	3624
bin	9.99648e-05	3513
bin	0.0001008192	3606
bin	0.0001016736	3547
bin	0.000102528	3577
bin	0.0001033824	3500
bin	0.0001042368	3411
bin	0.0001050912	3400
bin	0.0001059456	3282
bin	0.0001068	3256
bin	0.0001076544	3257
bin	0.0001085088	3159
bin	0.0001093632	3122
bin	0.0001102176	3048
bin	0.000111072	2994
bin	0.0001119264	2974
bin	0.0001127808	2932
bin	0.0001136352	2997
bin	0.0001144896	2898
bin	0.000115344	2796
bin	0.0001161984	2818
bin	0.0001170528	2743
bin	0.0001179072	2760
bin	0.0001187616	2829
bin	0.000119616	2850
bin	0.0001204704	2877
bin	0.0001213248	2937
bin	0.0001221792	2899
bin	0.0001230336	2913
bin	0.000123888	2912
bin	0.0001247424	2899
bin	0.0001255968	2807
bin	0.0001264512	2925
bin	0.0001273056	2958
bin	0.00012816	2914
bin	0.0001290144	2801
bin	0.0001298688	2716
bin	0.0001307232	2779
bin	0.0001315776	2658
bin	0.000132432	2619
bin	0.0001332864	2587
bin	0.0001341408	2561
bin	0.0001349952	2506
bin	0.0001358496	2578
bin	0.000136704	2471
bin	0.0001375584	2421
bin	0.0001384128	2391
bin	0.0001392672	2415
bin	0.0001401216	2431
bin	0.000140976	2349
bin	0.0001418304	2408
bin	0.0001426848	2462
bin	0.0001435392	2501
bin	0.0001443936	2461
bin	0.000145248	2448
bin	0.0001461024	2457
bin	0.0001469568	2404
bin	0.0001478112	2459
bin	0.0001486656	2466
bin	0.00014952	2530
bin	0.0001503744	2452
bin	0.0001512288	2471
bin	0.0001520832	2350
bin	0.0001529376	2409
bin	0.000153792	2390
bin	0.0001546464	2390
bin	0.0001555008	2394
bin	0.0001563552	2391
bin	0.0001572096	2377
bin	0.000158064	2439
bin	0.0001589184	2380
bin	0.0001597728	2361
bin	0.0001606272	2248
bin	0.0001614816	2202
bin	0.000162336	2203
bin	0.0001631904	2177
bin	0.0001640448	2112
bin	0.0001648992	2243
bin	0.0001657536	2159
bin	0.000166608	2213
bin	0.0001674624	2227
bin	0.0001683168	2234
bin	0.0001691712	2262
bin	0.0001700256	2247
bin	0.00017088	2283
bin	0.0001717344	2299
bin	0.0001725888	2282
bin	0.0001734432	2385
bin	0.0001742976	2376
bin	0.000175152	2412
bin	0.0001760064	2361
bin	0.0001768608	2299
bin	0.0001777152	2317
bin	0.0001785696	2331
bin	0.000179424	2292
bin	0.0001802784	2217
bin	0.0001811328	2189
bin	0.0001819872	2152
bin	0.0001828416	2093
bin	0.000183696	2111
bin	0.0001845504	2049
bin	0.0001854048	2062
bin	0.0001862592	2064
bin	0.0001871136	2141
bin	0.000187968	2103
bin	0.0001888224	2132
bin	0.0001896768	2100
bin	0.0001905312	2096
bin	0.0001913856	2077
bin	0.00019224	2040
bin	0.0001930944	2076
bin	0.0001939488	2083
bin	0.0001948032	2181
bin	0.0001956576	2117
bin	0.000196512	2064
bin	0.0001973664	2012
bin	0.0001982208	2008
bin	0.0001990752	2015
bin	0.0001999296	2081
bin	0.000200784	2086
bin	0.0002016384	2065
bin	0.0002024928	2028
bin	0.0002033472	1996
bin	0.0002042016	1954
bin	0.000205056	1982
bin	0.0002059104	1974
bin	0.0002067648	1912
bin	0.0002076192	1932
bin	0.0002084736	1849
bin	0.000209328	1906
bin	0.0002101824	1816
bin	0.0002110368	1763
bin	0.0002118912	1777
bin	0.0002127456	1706
bin	0.0002136	1730
bin	0.0002144544	1681
bin	0.0002153088	1717
bin	0.0002161632	1697
bin	0.0002170176	1683
bin	0.000217872	1668
bin	0.0002187264	1725
bin	0.0002195808	1677
bin	0.0002204352	1753
bin	0.0002212896	1755
bin	0.000222144	1756
bin	0.0002229984	1741
bin	0.0002238528	1753
bin	0.0002247072	1743
bin	0.0002255616	1847
bin	0.000226416	1791
bin	0.0002272704	1710
bin	0.0002281248	1791
bin	0.0002289792	1744
bin	0.0002298336	1753
bin	0.000230688	1685
bin	0.0002315424	1732
bin	0.0002323968	1672
bin	0.0002332512	1669
bin	0.0002341056	1628
bin	0.00023496	1590
bin	0.0002358144	1591
bin	0.0002366688	1528
bin	0.0002375232	1502
bin	0.0002383776	1567
bin	0.000239232	1548
bin	0.0002400864	1533
bin	0.0002409408	1596
bin	0.0002417952	1618
bin	0.0002426496	1557
bin	0.000243504	1624
bin	0.0002443584	1542
bin	0.0002452128	1586
bin	0.0002460672	1610
bin	0.0002469216	1577
bin	0.000247776	1575
bin	0.0002486304	1606
bin	0.0002494848	1559
bin	0.0002503392	1598
bin	0.0002511936	1570
bin	0.000252048	1594
bin	0.0002529024	1568
bin	0.0002537568	1621
bin	0.0002546112	1533
bin	0.0002554656	1579
bin	0.00025632	1513
bin	0.0002571744	1537
bin	0.0002580288	1473
bin	0.0002588832	1433
bin	0.0002597376	1378
bin	0.000260592	1369
bin	0.0002614464	1306
bin	0.0002623008	1383
bin	0.0002631552	1326
bin	0.0002640096	1349
bin	0.000264864	1348
bin	0.0002657184	1364
bin	0.0002665728	1392
bin	0.0002674272	1388
bin	0.0002682816	1396
bin	0.000269136	1423
bin	0.0002699904	1476
bin	0.0002708448	1472
bin	0.0002716992	1485
bin	0.0002725536	1488
bin	0.000273408	1466
bin	0.0002742624	1462
bin	0.0002751168	1472
bin	0.0002759712	1591
bin	0.0002768256	1554
bin	0.00027768	1515
bin	0.0002785344	1459
bin	0.0002793888	1495
bin	0.0002802432	1483
bin	0.0002810976	1448
bin	0.000281952	1377
bin	0.0002828064	1403
bin	0.0002836608	1362
bin	0.0002845152	1368
bin	0.0002853696	1369
bin	0.000286224	1340
bin	0.0002870784	1359
bin	0.0002879328	1304
bin	0.0002887872	1345
bin	0.0002896416	1344
bin	0.000290496	1361
bin	0.0002913504	1430
bin	0.0002922048	1481
bin	0.0002930592	1420
bin	0.0002939136	1471
bin	0.000294768	1522
bin	0.0002956224	1450
bin	0.0002964768	1467
bin	0.0002973312	1483
bin	0.0002981856	1505
bin	0.00029904	1539
bin	0.0002998944	1490
bin	0.0003007488	1523
bin	0.0003016032	1490
bin	0.0003024576	1463
bin	0.000303312	1476
bin	0.0003041664	1406
bin	0.0003050208	1441
bin	0.0003058752	1383
bin	0.0003067296	1354
bin	0.000307584	1318
bin	0.0003084384	1369
bin	0.0003092928	1337
bin	0.0003101472	1320
bin	0.0003110016	1325
bin	0.000311856	1383
bin	0.0003127104	1371
bin	0.0003135648	1371
bin	0.0003144192	1397
bin	0.0003152736	1340
bin	0.000316128	1346
bin	0.0003169824	1368
bin	0.0003178368	1348
bin	0.0003186912	1384
bin	0.0003195456	1463
bin	0.0003204	1408
bin	0.0003212544	1389
bin	0.0003221088	1386
bin	0.0003229632	1389
bin	0.0003238176	1394
bin	0.000324672	1284
bin	0.0003255264	1348
bin	0.0003263808	1300
bin	0.0003272352	1218
bin	0.0003280896	1199
bin	0.000328944	1205
bin	0.0003297984	1235
bin	0.0003306528	1200
bin	0.0003315072	1169
bin	0.0003323616	1211
bin	0.000333216	1189
bin	0.0003340704	1158
bin	0.0003349248	1111
bin	0.0003357792	1157
bin	0.0003366336	1148
bin	0.000337488	1155
bin	0.0003383424	1186
bin	0.0003391968	1195
bin	0.0003400512	1183
bin	0.0003409056	1270
bin	0.00034176	1249
bin	0.0003426144	1259
bin	0.0003434688	1331
bin	0.0003443232	1241
bin	0.0003451776	1238
bin	0.000346032	1326
bin	0.0003468864	1276
bin	0.0003477408	1313
bin	0.0003485952	1259
bin	0.0003494496	1221
bin	0.000350304	1295
bin	0.0003511584	1301
bin	0.0003520128	1259
bin	0.0003528672	1269
bin	0.0003537216	1259
bin	0.000354576	1229
bin	0.0003554304	1241
bin	0.0003562848	1273
bin	0.0003571392	1241
bin	0.0003579936	1236
bin	0.000358848	1204
bin	0.0003597024	1252
bin	0.0003605568	1316
bin	0.0003614112	1242
bin	0.0003622656	1239
bin	0.00036312	1292
bin	0.0003639744	1273
bin	0.0003648288	1266
bin	0.0003656832	1321
bin	0.0003665376	1291
bin	0.000367392	1277
bin	0.0003682464	1304
bin	0.0003691008	1241
bin	0.0003699552	1284
bin	0.0003708096	1364
bin	0.000371664	1423
bin	0.0003725184	1408
bin	0.0003733728	1421
bin	0.0003742272	1433
bin	0.0003750816	1427
bin	0.000375936	1400
bin	0.0003767904	1309
bin	0.0003776448	1355
bin	0.0003784992	1306
bin	0.0003793536	1276
bin	0.000380208	1286
bin	0.0003810624	1283
bin	0.0003819168	1240
bin	0.0003827712	1270
bin	0.0003836256	1240
bin	0.00038448	1251
bin	0.0003853344	1251
bin	0.0003861888	1244
bin	0.0003870432	1222
bin	0.0003878976	1198
bin	0.000388752	1202
bin	0.0003896064	1268
bin	0.0003904608	1292
bin	0.0003913152	1329
bin	0.0003921696	1253
bin	0.000393024	1308
bin	0.0003938784	1308
bin	0.0003947328	1321
bin	0.0003955872	1300
bin	0.0003964416	1313
bin	0.000397296	1341
bin	0.0003981504	1363
bin	0.0003990048	1297
bin	0.0003998592	1311
bin	0.0004007136	1299
bin	0.000401568	1240
bin	0.0004024224	1254
bin	0.0004032768	1236
bin	0.0004041312	1237
bin	0.0004049856	1224
bin	0.00040584	1236
bin	0.0004066944	1215
bin	0.0004075488	1227
bin	0.0004084032	1177
bin	0.0004092576	1198
bin	0.000410112	1147
bin	0.0004109664	1174
bin	0.0004118208	1185
bin	0.0004126752	1224
bin	0.0004135296	1222
bin	0.000414384	1239
bin	0.0004152384	1220
bin	0.0004160928	1176
bin	0.0004169472	1273
bin	0.0004178016	1325
bin	0.000418656	1300
bin	0.0004195104	1332
bin	0.0004203648	1247
bin	0.0004212192	1266
bin	0.0004220736	1300
bin	0.000422928	1311
bin	0.0004237824	1224
bin	0.0004246368	1267
bin	0.0004254912	1260
bin	0.0004263456	1274
bin	0.0004272	4229753
