version 2
run Permutation-72-20120711-01:17:03-28181
attr alg 0
attr buf 8
attr configname Permutation
attr datetime 20120711-01:17:03
attr delta 0.8
attr experiment Permutation
attr ext false
attr inifile altro.ini
attr iterationvars "$buf=8, $ext=false, $ofedge=2, $delta=0.8, $alg=0"
attr iterationvars2 "$buf=8, $ext=false, $ofedge=2, $delta=0.8, $alg=0, $repetition=0"
attr measurement "$buf=8, $ext=false, $ofedge=2, $delta=0.8, $alg=0"
attr network Torus3d_bub
attr ofedge 2
attr processid 28181
attr repetition 0
attr replication #0
attr resultdir altro-results
attr runnumber 72
attr seedset 72

scalar . 	alg 	0
scalar . 	buf 	8
scalar . 	delta 	0.8
scalar . 	ofedge 	2
scalar Torus3d_bub.timer 	#endTime 	0.002348060330304
scalar Torus3d_bub.timer 	#totalHops 	76339200
scalar Torus3d_bub.timer 	#totalPacks 	6291456
scalar Torus3d_bub.timer 	#totalDerouted 	0
scalar Torus3d_bub.timer 	#totalOutFlanked 	0
scalar Torus3d_bub.timer 	#totalCQRed 	0
scalar Torus3d_bub.timer 	#LB 	0.000786432
scalar Torus3d_bub.timer 	#ratio 	0.33492836186972
statistic Torus3d_bub.timer 	"Hop Times"
field count 6291456
field mean 3.7181301295825e-05
field stddev 4.9684534513214e-05
field sum 233.92452112542
field sqrsum 0.024228408025026
field min 3.80142857e-07
field max 0.001126380665152
bin	-INF	0
bin	0	0
bin	7.12e-08	0
bin	1.424e-07	0
bin	2.136e-07	0
bin	2.848e-07	0
bin	3.56e-07	225
bin	4.272e-07	1871
bin	4.984e-07	5626
bin	5.696e-07	9339
bin	6.408e-07	13804
bin	7.12e-07	17888
bin	7.832e-07	21733
bin	8.544e-07	25055
bin	9.256e-07	27797
bin	9.968e-07	30641
bin	1.068e-06	33584
bin	1.1392e-06	36581
bin	1.2104e-06	39967
bin	1.2816e-06	43806
bin	1.3528e-06	48232
bin	1.424e-06	52896
bin	1.4952e-06	57746
bin	1.5664e-06	62238
bin	1.6376e-06	65492
bin	1.7088e-06	68114
bin	1.78e-06	69670
bin	1.8512e-06	70095
bin	1.9224e-06	69576
bin	1.9936e-06	68188
bin	2.0648e-06	66160
bin	2.136e-06	63442
bin	2.2072e-06	60558
bin	2.2784e-06	57125
bin	2.3496e-06	54032
bin	2.4208e-06	51343
bin	2.492e-06	47994
bin	2.5632e-06	45283
bin	2.6344e-06	42566
bin	2.7056e-06	39670
bin	2.7768e-06	37200
bin	2.848e-06	34523
bin	2.9192e-06	32923
bin	2.9904e-06	31175
bin	3.0616e-06	29226
bin	3.1328e-06	27849
bin	3.204e-06	26348
bin	3.2752e-06	25165
bin	3.3464e-06	23726
bin	3.4176e-06	22691
bin	3.4888e-06	21620
bin	3.56e-06	20786
bin	3.6312e-06	19801
bin	3.7024e-06	18742
bin	3.7736e-06	17901
bin	3.8448e-06	17455
bin	3.916e-06	16680
bin	3.9872e-06	16133
bin	4.0584e-06	15489
bin	4.1296e-06	14969
bin	4.2008e-06	14319
bin	4.272e-06	14124
bin	4.3432e-06	13641
bin	4.4144e-06	13550
bin	4.4856e-06	12667
bin	4.5568e-06	12590
bin	4.628e-06	12504
bin	4.6992e-06	12138
bin	4.7704e-06	11768
bin	4.8416e-06	11434
bin	4.9128e-06	11411
bin	4.984e-06	10951
bin	5.0552e-06	10664
bin	5.1264e-06	10491
bin	5.1976e-06	10228
bin	5.2688e-06	9910
bin	5.34e-06	9769
bin	5.4112e-06	9590
bin	5.4824e-06	9450
bin	5.5536e-06	9249
bin	5.6248e-06	9214
bin	5.696e-06	9074
bin	5.7672e-06	8678
bin	5.8384e-06	8648
bin	5.9096e-06	8476
bin	5.9808e-06	8446
bin	6.052e-06	8312
bin	6.1232e-06	8294
bin	6.1944e-06	8087
bin	6.2656e-06	8031
bin	6.3368e-06	7842
bin	6.408e-06	7793
bin	6.4792e-06	7553
bin	6.5504e-06	7574
bin	6.6216e-06	7424
bin	6.6928e-06	7460
bin	6.764e-06	7251
bin	6.8352e-06	7244
bin	6.9064e-06	7121
bin	6.9776e-06	6971
bin	7.0488e-06	6982
bin	7.12e-06	6972
bin	7.1912e-06	6679
bin	7.2624e-06	6872
bin	7.3336e-06	6717
bin	7.4048e-06	6839
bin	7.476e-06	6801
bin	7.5472e-06	6549
bin	7.6184e-06	6471
bin	7.6896e-06	6468
bin	7.7608e-06	6507
bin	7.832e-06	6305
bin	7.9032e-06	6250
bin	7.9744e-06	6249
bin	8.0456e-06	6230
bin	8.1168e-06	6176
bin	8.188e-06	6017
bin	8.2592e-06	5986
bin	8.3304e-06	5994
bin	8.4016e-06	5934
bin	8.4728e-06	5953
bin	8.544e-06	5890
bin	8.6152e-06	5910
bin	8.6864e-06	5876
bin	8.7576e-06	5824
bin	8.8288e-06	5762
bin	8.9e-06	5780
bin	8.9712e-06	5777
bin	9.0424e-06	5587
bin	9.1136e-06	5618
bin	9.1848e-06	5572
bin	9.256e-06	5528
bin	9.3272e-06	5515
bin	9.3984e-06	5419
bin	9.4696e-06	5533
bin	9.5408e-06	5524
bin	9.612e-06	5521
bin	9.6832e-06	5380
bin	9.7544e-06	5526
bin	9.8256e-06	5300
bin	9.8968e-06	5321
bin	9.968e-06	5515
bin	1.00392e-05	5213
bin	1.01104e-05	5411
bin	1.01816e-05	5214
bin	1.02528e-05	5268
bin	1.0324e-05	5334
bin	1.03952e-05	5213
bin	1.04664e-05	5314
bin	1.05376e-05	5319
bin	1.06088e-05	5253
bin	1.068e-05	5110
bin	1.07512e-05	5213
bin	1.08224e-05	5090
bin	1.08936e-05	5015
bin	1.09648e-05	5066
bin	1.1036e-05	4900
bin	1.11072e-05	4999
bin	1.11784e-05	4821
bin	1.12496e-05	4875
bin	1.13208e-05	4834
bin	1.1392e-05	4864
bin	1.14632e-05	4910
bin	1.15344e-05	4935
bin	1.16056e-05	4842
bin	1.16768e-05	4811
bin	1.1748e-05	4802
bin	1.18192e-05	4841
bin	1.18904e-05	4816
bin	1.19616e-05	4738
bin	1.20328e-05	4687
bin	1.2104e-05	4622
bin	1.21752e-05	4676
bin	1.22464e-05	4647
bin	1.23176e-05	4629
bin	1.23888e-05	4689
bin	1.246e-05	4572
bin	1.25312e-05	4493
bin	1.26024e-05	4510
bin	1.26736e-05	4556
bin	1.27448e-05	4541
bin	1.2816e-05	4487
bin	1.28872e-05	4497
bin	1.29584e-05	4411
bin	1.30296e-05	4435
bin	1.31008e-05	4401
bin	1.3172e-05	4318
bin	1.32432e-05	4388
bin	1.33144e-05	4326
bin	1.33856e-05	4349
bin	1.34568e-05	4339
bin	1.3528e-05	4340
bin	1.35992e-05	4255
bin	1.36704e-05	4218
bin	1.37416e-05	4424
bin	1.38128e-05	4244
bin	1.3884e-05	4315
bin	1.39552e-05	4280
bin	1.40264e-05	4190
bin	1.40976e-05	4172
bin	1.41688e-05	4250
bin	1.424e-05	4250
bin	1.43112e-05	4320
bin	1.43824e-05	4181
bin	1.44536e-05	4211
bin	1.45248e-05	4273
bin	1.4596e-05	4260
bin	1.46672e-05	4107
bin	1.47384e-05	4154
bin	1.48096e-05	4182
bin	1.48808e-05	4080
bin	1.4952e-05	4040
bin	1.50232e-05	3980
bin	1.50944e-05	3946
bin	1.51656e-05	3940
bin	1.52368e-05	3930
bin	1.5308e-05	3842
bin	1.53792e-05	3951
bin	1.54504e-05	3960
bin	1.55216e-05	3895
bin	1.55928e-05	3842
bin	1.5664e-05	3910
bin	1.57352e-05	3746
bin	1.58064e-05	3701
bin	1.58776e-05	3704
bin	1.59488e-05	3766
bin	1.602e-05	3735
bin	1.60912e-05	3622
bin	1.61624e-05	3684
bin	1.62336e-05	3832
bin	1.63048e-05	3833
bin	1.6376e-05	3726
bin	1.64472e-05	3627
bin	1.65184e-05	3674
bin	1.65896e-05	3743
bin	1.66608e-05	3627
bin	1.6732e-05	3598
bin	1.68032e-05	3626
bin	1.68744e-05	3554
bin	1.69456e-05	3651
bin	1.70168e-05	3569
bin	1.7088e-05	3658
bin	1.71592e-05	3669
bin	1.72304e-05	3531
bin	1.73016e-05	3538
bin	1.73728e-05	3650
bin	1.7444e-05	3672
bin	1.75152e-05	3577
bin	1.75864e-05	3628
bin	1.76576e-05	3457
bin	1.77288e-05	3490
bin	1.78e-05	3429
bin	1.78712e-05	3435
bin	1.79424e-05	3358
bin	1.80136e-05	3326
bin	1.80848e-05	3430
bin	1.8156e-05	3388
bin	1.82272e-05	3473
bin	1.82984e-05	3433
bin	1.83696e-05	3403
bin	1.84408e-05	3479
bin	1.8512e-05	3427
bin	1.85832e-05	3380
bin	1.86544e-05	3587
bin	1.87256e-05	3535
bin	1.87968e-05	3501
bin	1.8868e-05	3540
bin	1.89392e-05	3604
bin	1.90104e-05	3475
bin	1.90816e-05	3443
bin	1.91528e-05	3461
bin	1.9224e-05	3458
bin	1.92952e-05	3386
bin	1.93664e-05	3334
bin	1.94376e-05	3300
bin	1.95088e-05	3289
bin	1.958e-05	3306
bin	1.96512e-05	3321
bin	1.97224e-05	3264
bin	1.97936e-05	3286
bin	1.98648e-05	3397
bin	1.9936e-05	3394
bin	2.00072e-05	3215
bin	2.00784e-05	3238
bin	2.01496e-05	3201
bin	2.02208e-05	3197
bin	2.0292e-05	3155
bin	2.03632e-05	3244
bin	2.04344e-05	3145
bin	2.05056e-05	3242
bin	2.05768e-05	3176
bin	2.0648e-05	3296
bin	2.07192e-05	3298
bin	2.07904e-05	3131
bin	2.08616e-05	3191
bin	2.09328e-05	3175
bin	2.1004e-05	3065
bin	2.10752e-05	3144
bin	2.11464e-05	3065
bin	2.12176e-05	3181
bin	2.12888e-05	3097
bin	2.136e-05	3116
bin	2.14312e-05	3136
bin	2.15024e-05	3201
bin	2.15736e-05	3105
bin	2.16448e-05	3201
bin	2.1716e-05	3017
bin	2.17872e-05	3031
bin	2.18584e-05	2987
bin	2.19296e-05	3012
bin	2.20008e-05	3069
bin	2.2072e-05	3013
bin	2.21432e-05	2992
bin	2.22144e-05	3009
bin	2.22856e-05	3125
bin	2.23568e-05	3080
bin	2.2428e-05	2989
bin	2.24992e-05	3063
bin	2.25704e-05	3126
bin	2.26416e-05	2981
bin	2.27128e-05	3066
bin	2.2784e-05	2997
bin	2.28552e-05	2996
bin	2.29264e-05	3152
bin	2.29976e-05	3095
bin	2.30688e-05	3017
bin	2.314e-05	3049
bin	2.32112e-05	2986
bin	2.32824e-05	3085
bin	2.33536e-05	3013
bin	2.34248e-05	3114
bin	2.3496e-05	3022
bin	2.35672e-05	3029
bin	2.36384e-05	3084
bin	2.37096e-05	2986
bin	2.37808e-05	3026
bin	2.3852e-05	2959
bin	2.39232e-05	2970
bin	2.39944e-05	2931
bin	2.40656e-05	3015
bin	2.41368e-05	2877
bin	2.4208e-05	2901
bin	2.42792e-05	2934
bin	2.43504e-05	2930
bin	2.44216e-05	2892
bin	2.44928e-05	2914
bin	2.4564e-05	2996
bin	2.46352e-05	2876
bin	2.47064e-05	2846
bin	2.47776e-05	3088
bin	2.48488e-05	2947
bin	2.492e-05	2980
bin	2.49912e-05	2928
bin	2.50624e-05	2939
bin	2.51336e-05	2964
bin	2.52048e-05	2859
bin	2.5276e-05	2940
bin	2.53472e-05	3024
bin	2.54184e-05	2951
bin	2.54896e-05	2824
bin	2.55608e-05	2854
bin	2.5632e-05	2967
bin	2.57032e-05	2896
bin	2.57744e-05	2962
bin	2.58456e-05	2930
bin	2.59168e-05	2850
bin	2.5988e-05	2827
bin	2.60592e-05	2925
bin	2.61304e-05	2853
bin	2.62016e-05	2904
bin	2.62728e-05	2941
bin	2.6344e-05	2932
bin	2.64152e-05	2839
bin	2.64864e-05	2921
bin	2.65576e-05	2832
bin	2.66288e-05	2760
bin	2.67e-05	2864
bin	2.67712e-05	2985
bin	2.68424e-05	2835
bin	2.69136e-05	2878
bin	2.69848e-05	2940
bin	2.7056e-05	2830
bin	2.71272e-05	2868
bin	2.71984e-05	2779
bin	2.72696e-05	2825
bin	2.73408e-05	2810
bin	2.7412e-05	2892
bin	2.74832e-05	2873
bin	2.75544e-05	2828
bin	2.76256e-05	2962
bin	2.76968e-05	2803
bin	2.7768e-05	2798
bin	2.78392e-05	2849
bin	2.79104e-05	2838
bin	2.79816e-05	2877
bin	2.80528e-05	2836
bin	2.8124e-05	2817
bin	2.81952e-05	2767
bin	2.82664e-05	2781
bin	2.83376e-05	2804
bin	2.84088e-05	2848
bin	2.848e-05	2774
bin	2.85512e-05	2787
bin	2.86224e-05	2809
bin	2.86936e-05	2837
bin	2.87648e-05	2762
bin	2.8836e-05	2795
bin	2.89072e-05	2814
bin	2.89784e-05	2809
bin	2.90496e-05	2763
bin	2.91208e-05	2802
bin	2.9192e-05	2736
bin	2.92632e-05	2846
bin	2.93344e-05	2901
bin	2.94056e-05	2744
bin	2.94768e-05	2802
bin	2.9548e-05	2711
bin	2.96192e-05	2849
bin	2.96904e-05	2830
bin	2.97616e-05	2748
bin	2.98328e-05	2816
bin	2.9904e-05	2799
bin	2.99752e-05	2803
bin	3.00464e-05	2773
bin	3.01176e-05	2740
bin	3.01888e-05	2811
bin	3.026e-05	2829
bin	3.03312e-05	2817
bin	3.04024e-05	2861
bin	3.04736e-05	2876
bin	3.05448e-05	2883
bin	3.0616e-05	2790
bin	3.06872e-05	2863
bin	3.07584e-05	2897
bin	3.08296e-05	2869
bin	3.09008e-05	2791
bin	3.0972e-05	2879
bin	3.10432e-05	2830
bin	3.11144e-05	2802
bin	3.11856e-05	2772
bin	3.12568e-05	2803
bin	3.1328e-05	2820
bin	3.13992e-05	2735
bin	3.14704e-05	2686
bin	3.15416e-05	2803
bin	3.16128e-05	2768
bin	3.1684e-05	2777
bin	3.17552e-05	2770
bin	3.18264e-05	2730
bin	3.18976e-05	2717
bin	3.19688e-05	2695
bin	3.204e-05	2717
bin	3.21112e-05	2708
bin	3.21824e-05	2624
bin	3.22536e-05	2757
bin	3.23248e-05	2767
bin	3.2396e-05	2775
bin	3.24672e-05	2716
bin	3.25384e-05	2730
bin	3.26096e-05	2745
bin	3.26808e-05	2704
bin	3.2752e-05	2756
bin	3.28232e-05	2784
bin	3.28944e-05	2746
bin	3.29656e-05	2788
bin	3.30368e-05	2756
bin	3.3108e-05	2810
bin	3.31792e-05	2769
bin	3.32504e-05	2843
bin	3.33216e-05	2810
bin	3.33928e-05	2765
bin	3.3464e-05	2713
bin	3.35352e-05	2770
bin	3.36064e-05	2857
bin	3.36776e-05	2822
bin	3.37488e-05	2822
bin	3.382e-05	2718
bin	3.38912e-05	2747
bin	3.39624e-05	2859
bin	3.40336e-05	2828
bin	3.41048e-05	2871
bin	3.4176e-05	2897
bin	3.42472e-05	2797
bin	3.43184e-05	2855
bin	3.43896e-05	2806
bin	3.44608e-05	2685
bin	3.4532e-05	2829
bin	3.46032e-05	2701
bin	3.46744e-05	2805
bin	3.47456e-05	3002
bin	3.48168e-05	2928
bin	3.4888e-05	2840
bin	3.49592e-05	2768
bin	3.50304e-05	2810
bin	3.51016e-05	2868
bin	3.51728e-05	2961
bin	3.5244e-05	2851
bin	3.53152e-05	2854
bin	3.53864e-05	2886
bin	3.54576e-05	2815
bin	3.55288e-05	2877
bin	3.56e-05	2499754
statistic Torus3d_bub.timer 	"Life Times"
field count 6291456
field mean 0.00039823227352437
field stddev 0.00039952986777872
field sum 2505.4608266585
field sqrsum 2.0020232992196
field min 5.2e-07
field max 0.002282402333283
bin	-INF	0
bin	0	35
bin	8.544e-07	882
bin	1.7088e-06	2798
bin	2.5632e-06	5412
bin	3.4176e-06	8435
bin	4.272e-06	11634
bin	5.1264e-06	14844
bin	5.9808e-06	17954
bin	6.8352e-06	20978
bin	7.6896e-06	24145
bin	8.544e-06	27440
bin	9.3984e-06	30286
bin	1.02528e-05	32949
bin	1.11072e-05	35195
bin	1.19616e-05	37475
bin	1.2816e-05	39652
bin	1.36704e-05	41832
bin	1.45248e-05	44180
bin	1.53792e-05	45595
bin	1.62336e-05	47255
bin	1.7088e-05	49129
bin	1.79424e-05	51045
bin	1.87968e-05	52752
bin	1.96512e-05	54743
bin	2.05056e-05	56572
bin	2.136e-05	57862
bin	2.22144e-05	59602
bin	2.30688e-05	61322
bin	2.39232e-05	62089
bin	2.47776e-05	62445
bin	2.5632e-05	62006
bin	2.64864e-05	61091
bin	2.73408e-05	60093
bin	2.81952e-05	58303
bin	2.90496e-05	56324
bin	2.9904e-05	54012
bin	3.07584e-05	51766
bin	3.16128e-05	47672
bin	3.24672e-05	43961
bin	3.33216e-05	40048
bin	3.4176e-05	36468
bin	3.50304e-05	33609
bin	3.58848e-05	31023
bin	3.67392e-05	28487
bin	3.75936e-05	26279
bin	3.8448e-05	24217
bin	3.93024e-05	22609
bin	4.01568e-05	20770
bin	4.10112e-05	19667
bin	4.18656e-05	18164
bin	4.272e-05	16859
bin	4.35744e-05	15752
bin	4.44288e-05	15109
bin	4.52832e-05	14248
bin	4.61376e-05	13694
bin	4.6992e-05	13169
bin	4.78464e-05	12865
bin	4.87008e-05	12434
bin	4.95552e-05	12156
bin	5.04096e-05	11936
bin	5.1264e-05	11698
bin	5.21184e-05	11650
bin	5.29728e-05	11469
bin	5.38272e-05	11079
bin	5.46816e-05	10972
bin	5.5536e-05	11071
bin	5.63904e-05	10894
bin	5.72448e-05	10937
bin	5.80992e-05	10894
bin	5.89536e-05	10954
bin	5.9808e-05	10846
bin	6.06624e-05	11103
bin	6.15168e-05	11104
bin	6.23712e-05	10736
bin	6.32256e-05	10545
bin	6.408e-05	10446
bin	6.49344e-05	10146
bin	6.57888e-05	10159
bin	6.66432e-05	9756
bin	6.74976e-05	9547
bin	6.8352e-05	9058
bin	6.92064e-05	8905
bin	7.00608e-05	8578
bin	7.09152e-05	8383
bin	7.17696e-05	8156
bin	7.2624e-05	7668
bin	7.34784e-05	7767
bin	7.43328e-05	7431
bin	7.51872e-05	7190
bin	7.60416e-05	7287
bin	7.6896e-05	6942
bin	7.77504e-05	6777
bin	7.86048e-05	6776
bin	7.94592e-05	6621
bin	8.03136e-05	6662
bin	8.1168e-05	6603
bin	8.20224e-05	6514
bin	8.28768e-05	6479
bin	8.37312e-05	6570
bin	8.45856e-05	6417
bin	8.544e-05	6416
bin	8.62944e-05	6353
bin	8.71488e-05	6610
bin	8.80032e-05	6658
bin	8.88576e-05	6574
bin	8.9712e-05	6557
bin	9.05664e-05	6622
bin	9.14208e-05	6475
bin	9.22752e-05	6530
bin	9.31296e-05	6656
bin	9.3984e-05	6588
bin	9.48384e-05	6593
bin	9.56928e-05	6545
bin	9.65472e-05	6536
bin	9.74016e-05	6486
bin	9.8256e-05	6412
bin	9.91104e-05	6367
bin	9.99648e-05	6082
bin	0.0001008192	6040
bin	0.0001016736	5894
bin	0.000102528	5778
bin	0.0001033824	5667
bin	0.0001042368	5628
bin	0.0001050912	5612
bin	0.0001059456	5478
bin	0.0001068	5317
bin	0.0001076544	5277
bin	0.0001085088	5230
bin	0.0001093632	5248
bin	0.0001102176	5038
bin	0.000111072	5097
bin	0.0001119264	5039
bin	0.0001127808	4978
bin	0.0001136352	4991
bin	0.0001144896	4979
bin	0.000115344	4978
bin	0.0001161984	5258
bin	0.0001170528	5219
bin	0.0001179072	5236
bin	0.0001187616	5259
bin	0.000119616	5320
bin	0.0001204704	5392
bin	0.0001213248	5270
bin	0.0001221792	5396
bin	0.0001230336	5368
bin	0.000123888	5355
bin	0.0001247424	5428
bin	0.0001255968	5390
bin	0.0001264512	5310
bin	0.0001273056	5356
bin	0.00012816	5188
bin	0.0001290144	5118
bin	0.0001298688	5145
bin	0.0001307232	5106
bin	0.0001315776	5017
bin	0.000132432	4983
bin	0.0001332864	4914
bin	0.0001341408	4790
bin	0.0001349952	4669
bin	0.0001358496	4592
bin	0.000136704	4405
bin	0.0001375584	4414
bin	0.0001384128	4345
bin	0.0001392672	4408
bin	0.0001401216	4269
bin	0.000140976	4287
bin	0.0001418304	4298
bin	0.0001426848	4337
bin	0.0001435392	4259
bin	0.0001443936	4399
bin	0.000145248	4275
bin	0.0001461024	4467
bin	0.0001469568	4397
bin	0.0001478112	4482
bin	0.0001486656	4559
bin	0.00014952	4582
bin	0.0001503744	4569
bin	0.0001512288	4585
bin	0.0001520832	4813
bin	0.0001529376	4721
bin	0.000153792	4658
bin	0.0001546464	4755
bin	0.0001555008	4732
bin	0.0001563552	4663
bin	0.0001572096	4596
bin	0.000158064	4555
bin	0.0001589184	4581
bin	0.0001597728	4468
bin	0.0001606272	4396
bin	0.0001614816	4359
bin	0.000162336	4322
bin	0.0001631904	4164
bin	0.0001640448	4141
bin	0.0001648992	4128
bin	0.0001657536	3977
bin	0.000166608	3965
bin	0.0001674624	3987
bin	0.0001683168	3787
bin	0.0001691712	3937
bin	0.0001700256	3829
bin	0.00017088	3927
bin	0.0001717344	3940
bin	0.0001725888	3900
bin	0.0001734432	3892
bin	0.0001742976	3828
bin	0.000175152	3914
bin	0.0001760064	3911
bin	0.0001768608	3843
bin	0.0001777152	4004
bin	0.0001785696	3960
bin	0.000179424	4044
bin	0.0001802784	3904
bin	0.0001811328	3957
bin	0.0001819872	3950
bin	0.0001828416	4076
bin	0.000183696	4035
bin	0.0001845504	4059
bin	0.0001854048	3957
bin	0.0001862592	4123
bin	0.0001871136	4087
bin	0.000187968	4053
bin	0.0001888224	3977
bin	0.0001896768	4023
bin	0.0001905312	3950
bin	0.0001913856	3957
bin	0.00019224	3889
bin	0.0001930944	3780
bin	0.0001939488	3763
bin	0.0001948032	3701
bin	0.0001956576	3620
bin	0.000196512	3635
bin	0.0001973664	3557
bin	0.0001982208	3637
bin	0.0001990752	3443
bin	0.0001999296	3509
bin	0.000200784	3603
bin	0.0002016384	3517
bin	0.0002024928	3510
bin	0.0002033472	3453
bin	0.0002042016	3328
bin	0.000205056	3386
bin	0.0002059104	3423
bin	0.0002067648	3410
bin	0.0002076192	3482
bin	0.0002084736	3525
bin	0.000209328	3475
bin	0.0002101824	3581
bin	0.0002110368	3636
bin	0.0002118912	3701
bin	0.0002127456	3621
bin	0.0002136	3588
bin	0.0002144544	3650
bin	0.0002153088	3735
bin	0.0002161632	3605
bin	0.0002170176	3540
bin	0.000217872	3604
bin	0.0002187264	3632
bin	0.0002195808	3631
bin	0.0002204352	3555
bin	0.0002212896	3596
bin	0.000222144	3476
bin	0.0002229984	3398
bin	0.0002238528	3316
bin	0.0002247072	3407
bin	0.0002255616	3219
bin	0.000226416	3295
bin	0.0002272704	3274
bin	0.0002281248	3217
bin	0.0002289792	3142
bin	0.0002298336	3141
bin	0.000230688	3115
bin	0.0002315424	3259
bin	0.0002323968	3234
bin	0.0002332512	3192
bin	0.0002341056	3108
bin	0.00023496	3206
bin	0.0002358144	3095
bin	0.0002366688	3128
bin	0.0002375232	3113
bin	0.0002383776	3135
bin	0.000239232	3115
bin	0.0002400864	3107
bin	0.0002409408	3190
bin	0.0002417952	3137
bin	0.0002426496	3204
bin	0.000243504	3270
bin	0.0002443584	3278
bin	0.0002452128	3371
bin	0.0002460672	3293
bin	0.0002469216	3247
bin	0.000247776	3234
bin	0.0002486304	3260
bin	0.0002494848	3151
bin	0.0002503392	3173
bin	0.0002511936	3191
bin	0.000252048	3180
bin	0.0002529024	3139
bin	0.0002537568	3001
bin	0.0002546112	3078
bin	0.0002554656	3003
bin	0.00025632	3033
bin	0.0002571744	3012
bin	0.0002580288	2974
bin	0.0002588832	2914
bin	0.0002597376	2886
bin	0.000260592	2800
bin	0.0002614464	2830
bin	0.0002623008	2961
bin	0.0002631552	2882
bin	0.0002640096	2872
bin	0.000264864	3038
bin	0.0002657184	2961
bin	0.0002665728	2958
bin	0.0002674272	2957
bin	0.0002682816	2989
bin	0.000269136	2906
bin	0.0002699904	2866
bin	0.0002708448	2834
bin	0.0002716992	2841
bin	0.0002725536	2886
bin	0.000273408	2970
bin	0.0002742624	2938
bin	0.0002751168	2946
bin	0.0002759712	3054
bin	0.0002768256	2965
bin	0.00027768	3043
bin	0.0002785344	3031
bin	0.0002793888	3052
bin	0.0002802432	3074
bin	0.0002810976	3070
bin	0.000281952	3069
bin	0.0002828064	2931
bin	0.0002836608	3005
bin	0.0002845152	2964
bin	0.0002853696	2799
bin	0.000286224	2916
bin	0.0002870784	2934
bin	0.0002879328	2753
bin	0.0002887872	2791
bin	0.0002896416	2789
bin	0.000290496	2698
bin	0.0002913504	2718
bin	0.0002922048	2760
bin	0.0002930592	2771
bin	0.0002939136	2739
bin	0.000294768	2668
bin	0.0002956224	2661
bin	0.0002964768	2697
bin	0.0002973312	2658
bin	0.0002981856	2792
bin	0.00029904	2787
bin	0.0002998944	2882
bin	0.0003007488	2835
bin	0.0003016032	2815
bin	0.0003024576	2748
bin	0.000303312	2951
bin	0.0003041664	2878
bin	0.0003050208	2877
bin	0.0003058752	2849
bin	0.0003067296	2803
bin	0.000307584	2847
bin	0.0003084384	2889
bin	0.0003092928	2828
bin	0.0003101472	2743
bin	0.0003110016	2729
bin	0.000311856	2812
bin	0.0003127104	2832
bin	0.0003135648	2817
bin	0.0003144192	2830
bin	0.0003152736	2814
bin	0.000316128	2803
bin	0.0003169824	2781
bin	0.0003178368	2691
bin	0.0003186912	2699
bin	0.0003195456	2625
bin	0.0003204	2635
bin	0.0003212544	2548
bin	0.0003221088	2687
bin	0.0003229632	2563
bin	0.0003238176	2638
bin	0.000324672	2552
bin	0.0003255264	2612
bin	0.0003263808	2590
bin	0.0003272352	2627
bin	0.0003280896	2653
bin	0.000328944	2597
bin	0.0003297984	2627
bin	0.0003306528	2642
bin	0.0003315072	2735
bin	0.0003323616	2646
bin	0.000333216	2691
bin	0.0003340704	2714
bin	0.0003349248	2692
bin	0.0003357792	2807
bin	0.0003366336	2708
bin	0.000337488	2752
bin	0.0003383424	2766
bin	0.0003391968	2747
bin	0.0003400512	2787
bin	0.0003409056	2701
bin	0.00034176	2751
bin	0.0003426144	2776
bin	0.0003434688	2713
bin	0.0003443232	2735
bin	0.0003451776	2623
bin	0.000346032	2611
bin	0.0003468864	2591
bin	0.0003477408	2556
bin	0.0003485952	2647
bin	0.0003494496	2550
bin	0.000350304	2553
bin	0.0003511584	2536
bin	0.0003520128	2574
bin	0.0003528672	2511
bin	0.0003537216	2517
bin	0.000354576	2499
bin	0.0003554304	2561
bin	0.0003562848	2550
bin	0.0003571392	2549
bin	0.0003579936	2570
bin	0.000358848	2559
bin	0.0003597024	2577
bin	0.0003605568	2624
bin	0.0003614112	2529
bin	0.0003622656	2547
bin	0.00036312	2473
bin	0.0003639744	2589
bin	0.0003648288	2594
bin	0.0003656832	2512
bin	0.0003665376	2614
bin	0.000367392	2596
bin	0.0003682464	2670
bin	0.0003691008	2688
bin	0.0003699552	2652
bin	0.0003708096	2513
bin	0.000371664	2585
bin	0.0003725184	2548
bin	0.0003733728	2569
bin	0.0003742272	2533
bin	0.0003750816	2562
bin	0.000375936	2603
bin	0.0003767904	2553
bin	0.0003776448	2642
bin	0.0003784992	2573
bin	0.0003793536	2573
bin	0.000380208	2544
bin	0.0003810624	2597
bin	0.0003819168	2508
bin	0.0003827712	2465
bin	0.0003836256	2501
bin	0.00038448	2449
bin	0.0003853344	2413
bin	0.0003861888	2466
bin	0.0003870432	2536
bin	0.0003878976	2398
bin	0.000388752	2485
bin	0.0003896064	2430
bin	0.0003904608	2360
bin	0.0003913152	2400
bin	0.0003921696	2484
bin	0.000393024	2458
bin	0.0003938784	2520
bin	0.0003947328	2527
bin	0.0003955872	2449
bin	0.0003964416	2540
bin	0.000397296	2536
bin	0.0003981504	2517
bin	0.0003990048	2567
bin	0.0003998592	2629
bin	0.0004007136	2593
bin	0.000401568	2508
bin	0.0004024224	2515
bin	0.0004032768	2542
bin	0.0004041312	2517
bin	0.0004049856	2532
bin	0.00040584	2358
bin	0.0004066944	2470
bin	0.0004075488	2509
bin	0.0004084032	2402
bin	0.0004092576	2385
bin	0.000410112	2418
bin	0.0004109664	2495
bin	0.0004118208	2405
bin	0.0004126752	2387
bin	0.0004135296	2315
bin	0.000414384	2322
bin	0.0004152384	2326
bin	0.0004160928	2350
bin	0.0004169472	2379
bin	0.0004178016	2404
bin	0.000418656	2336
bin	0.0004195104	2387
bin	0.0004203648	2344
bin	0.0004212192	2457
bin	0.0004220736	2451
bin	0.000422928	2489
bin	0.0004237824	2451
bin	0.0004246368	2429
bin	0.0004254912	2474
bin	0.0004263456	2497
bin	0.0004272	2539160
