version 2
run Permutation-52-20120710-23:41:39-28142
attr alg 0
attr buf 8
attr configname Permutation
attr datetime 20120710-23:41:39
attr delta 0.8
attr experiment Permutation
attr ext false
attr inifile altro.ini
attr iterationvars "$buf=8, $ext=false, $ofedge=1, $delta=0.8, $alg=0"
attr iterationvars2 "$buf=8, $ext=false, $ofedge=1, $delta=0.8, $alg=0, $repetition=0"
attr measurement "$buf=8, $ext=false, $ofedge=1, $delta=0.8, $alg=0"
attr network Torus3d_bub
attr ofedge 1
attr processid 28142
attr repetition 0
attr replication #0
attr resultdir altro-results
attr runnumber 52
attr seedset 52

scalar . 	alg 	0
scalar . 	buf 	8
scalar . 	delta 	0.8
scalar . 	ofedge 	1
scalar Torus3d_bub.timer 	#endTime 	0.002308956332324
scalar Torus3d_bub.timer 	#totalHops 	76339200
scalar Torus3d_bub.timer 	#totalPacks 	6291456
scalar Torus3d_bub.timer 	#totalDerouted 	0
scalar Torus3d_bub.timer 	#totalOutFlanked 	0
scalar Torus3d_bub.timer 	#totalCQRed 	0
scalar Torus3d_bub.timer 	#LB 	0.000786432
scalar Torus3d_bub.timer 	#ratio 	0.34060063804171
statistic Torus3d_bub.timer 	"Hop Times"
field count 6291456
field mean 3.8733953986405e-05
field stddev 5.1195011869552e-05
field sum 243.69296721149
field sqrsum 0.02592865055246
field min 3.80142857e-07
field max 0.001144682
bin	-INF	0
bin	0	0
bin	7.12e-08	0
bin	1.424e-07	0
bin	2.136e-07	0
bin	2.848e-07	0
bin	3.56e-07	227
bin	4.272e-07	1882
bin	4.984e-07	5542
bin	5.696e-07	9344
bin	6.408e-07	13785
bin	7.12e-07	17749
bin	7.832e-07	21580
bin	8.544e-07	25105
bin	9.256e-07	28023
bin	9.968e-07	31087
bin	1.068e-06	33631
bin	1.1392e-06	36457
bin	1.2104e-06	39941
bin	1.2816e-06	43766
bin	1.3528e-06	48342
bin	1.424e-06	53191
bin	1.4952e-06	57585
bin	1.5664e-06	62125
bin	1.6376e-06	65620
bin	1.7088e-06	67736
bin	1.78e-06	69653
bin	1.8512e-06	70189
bin	1.9224e-06	69275
bin	1.9936e-06	67974
bin	2.0648e-06	65714
bin	2.136e-06	63281
bin	2.2072e-06	60133
bin	2.2784e-06	56832
bin	2.3496e-06	54383
bin	2.4208e-06	50731
bin	2.492e-06	47876
bin	2.5632e-06	44774
bin	2.6344e-06	42431
bin	2.7056e-06	40283
bin	2.7768e-06	37512
bin	2.848e-06	34953
bin	2.9192e-06	32929
bin	2.9904e-06	31346
bin	3.0616e-06	29530
bin	3.1328e-06	28305
bin	3.204e-06	26298
bin	3.2752e-06	25088
bin	3.3464e-06	24216
bin	3.4176e-06	22766
bin	3.4888e-06	21635
bin	3.56e-06	20813
bin	3.6312e-06	19796
bin	3.7024e-06	19055
bin	3.7736e-06	18259
bin	3.8448e-06	17670
bin	3.916e-06	16945
bin	3.9872e-06	16429
bin	4.0584e-06	15828
bin	4.1296e-06	15185
bin	4.2008e-06	15003
bin	4.272e-06	14374
bin	4.3432e-06	13858
bin	4.4144e-06	13544
bin	4.4856e-06	13100
bin	4.5568e-06	12780
bin	4.628e-06	12549
bin	4.6992e-06	12205
bin	4.7704e-06	11831
bin	4.8416e-06	11744
bin	4.9128e-06	11328
bin	4.984e-06	10965
bin	5.0552e-06	10694
bin	5.1264e-06	10594
bin	5.1976e-06	10399
bin	5.2688e-06	10072
bin	5.34e-06	10147
bin	5.4112e-06	9893
bin	5.4824e-06	9788
bin	5.5536e-06	9578
bin	5.6248e-06	9528
bin	5.696e-06	9251
bin	5.7672e-06	9211
bin	5.8384e-06	8877
bin	5.9096e-06	8682
bin	5.9808e-06	8631
bin	6.052e-06	8490
bin	6.1232e-06	8418
bin	6.1944e-06	8287
bin	6.2656e-06	8096
bin	6.3368e-06	7972
bin	6.408e-06	7840
bin	6.4792e-06	7834
bin	6.5504e-06	7784
bin	6.6216e-06	7648
bin	6.6928e-06	7584
bin	6.764e-06	7562
bin	6.8352e-06	7362
bin	6.9064e-06	7248
bin	6.9776e-06	7118
bin	7.0488e-06	7315
bin	7.12e-06	6927
bin	7.1912e-06	7102
bin	7.2624e-06	6817
bin	7.3336e-06	6805
bin	7.4048e-06	6691
bin	7.476e-06	6684
bin	7.5472e-06	6632
bin	7.6184e-06	6471
bin	7.6896e-06	6373
bin	7.7608e-06	6462
bin	7.832e-06	6342
bin	7.9032e-06	6271
bin	7.9744e-06	6331
bin	8.0456e-06	6256
bin	8.1168e-06	6224
bin	8.188e-06	6019
bin	8.2592e-06	6043
bin	8.3304e-06	5940
bin	8.4016e-06	5949
bin	8.4728e-06	5999
bin	8.544e-06	5908
bin	8.6152e-06	5830
bin	8.6864e-06	5785
bin	8.7576e-06	5780
bin	8.8288e-06	5552
bin	8.9e-06	5494
bin	8.9712e-06	5667
bin	9.0424e-06	5673
bin	9.1136e-06	5656
bin	9.1848e-06	5573
bin	9.256e-06	5585
bin	9.3272e-06	5512
bin	9.3984e-06	5459
bin	9.4696e-06	5508
bin	9.5408e-06	5281
bin	9.612e-06	5185
bin	9.6832e-06	5040
bin	9.7544e-06	5048
bin	9.8256e-06	5120
bin	9.8968e-06	4977
bin	9.968e-06	5014
bin	1.00392e-05	4901
bin	1.01104e-05	4939
bin	1.01816e-05	4996
bin	1.02528e-05	4885
bin	1.0324e-05	5038
bin	1.03952e-05	4875
bin	1.04664e-05	4845
bin	1.05376e-05	4912
bin	1.06088e-05	4823
bin	1.068e-05	4850
bin	1.07512e-05	4789
bin	1.08224e-05	4768
bin	1.08936e-05	4808
bin	1.09648e-05	4702
bin	1.1036e-05	4584
bin	1.11072e-05	4662
bin	1.11784e-05	4534
bin	1.12496e-05	4547
bin	1.13208e-05	4545
bin	1.1392e-05	4521
bin	1.14632e-05	4449
bin	1.15344e-05	4464
bin	1.16056e-05	4369
bin	1.16768e-05	4344
bin	1.1748e-05	4348
bin	1.18192e-05	4419
bin	1.18904e-05	4312
bin	1.19616e-05	4244
bin	1.20328e-05	4316
bin	1.2104e-05	4301
bin	1.21752e-05	4427
bin	1.22464e-05	4253
bin	1.23176e-05	4219
bin	1.23888e-05	4204
bin	1.246e-05	4289
bin	1.25312e-05	4234
bin	1.26024e-05	4323
bin	1.26736e-05	4289
bin	1.27448e-05	4128
bin	1.2816e-05	4182
bin	1.28872e-05	4158
bin	1.29584e-05	4216
bin	1.30296e-05	4226
bin	1.31008e-05	4001
bin	1.3172e-05	3939
bin	1.32432e-05	3954
bin	1.33144e-05	4004
bin	1.33856e-05	4032
bin	1.34568e-05	4126
bin	1.3528e-05	3971
bin	1.35992e-05	3978
bin	1.36704e-05	4056
bin	1.37416e-05	3935
bin	1.38128e-05	3924
bin	1.3884e-05	3953
bin	1.39552e-05	3945
bin	1.40264e-05	3920
bin	1.40976e-05	3844
bin	1.41688e-05	3963
bin	1.424e-05	3895
bin	1.43112e-05	3821
bin	1.43824e-05	3833
bin	1.44536e-05	3823
bin	1.45248e-05	3787
bin	1.4596e-05	3728
bin	1.46672e-05	3739
bin	1.47384e-05	3805
bin	1.48096e-05	3701
bin	1.48808e-05	3733
bin	1.4952e-05	3779
bin	1.50232e-05	3685
bin	1.50944e-05	3686
bin	1.51656e-05	3695
bin	1.52368e-05	3651
bin	1.5308e-05	3597
bin	1.53792e-05	3692
bin	1.54504e-05	3622
bin	1.55216e-05	3542
bin	1.55928e-05	3532
bin	1.5664e-05	3659
bin	1.57352e-05	3609
bin	1.58064e-05	3634
bin	1.58776e-05	3527
bin	1.59488e-05	3555
bin	1.602e-05	3431
bin	1.60912e-05	3615
bin	1.61624e-05	3666
bin	1.62336e-05	3582
bin	1.63048e-05	3515
bin	1.6376e-05	3587
bin	1.64472e-05	3436
bin	1.65184e-05	3503
bin	1.65896e-05	3522
bin	1.66608e-05	3561
bin	1.6732e-05	3488
bin	1.68032e-05	3383
bin	1.68744e-05	3447
bin	1.69456e-05	3297
bin	1.70168e-05	3354
bin	1.7088e-05	3395
bin	1.71592e-05	3306
bin	1.72304e-05	3307
bin	1.73016e-05	3407
bin	1.73728e-05	3439
bin	1.7444e-05	3467
bin	1.75152e-05	3497
bin	1.75864e-05	3405
bin	1.76576e-05	3365
bin	1.77288e-05	3336
bin	1.78e-05	3401
bin	1.78712e-05	3313
bin	1.79424e-05	3235
bin	1.80136e-05	3263
bin	1.80848e-05	3251
bin	1.8156e-05	3284
bin	1.82272e-05	3324
bin	1.82984e-05	3416
bin	1.83696e-05	3242
bin	1.84408e-05	3230
bin	1.8512e-05	3224
bin	1.85832e-05	3202
bin	1.86544e-05	3167
bin	1.87256e-05	3187
bin	1.87968e-05	3204
bin	1.8868e-05	3257
bin	1.89392e-05	3171
bin	1.90104e-05	3116
bin	1.90816e-05	3199
bin	1.91528e-05	3139
bin	1.9224e-05	3091
bin	1.92952e-05	3142
bin	1.93664e-05	3110
bin	1.94376e-05	3091
bin	1.95088e-05	3098
bin	1.958e-05	3081
bin	1.96512e-05	3062
bin	1.97224e-05	3056
bin	1.97936e-05	3064
bin	1.98648e-05	3053
bin	1.9936e-05	3097
bin	2.00072e-05	3121
bin	2.00784e-05	3088
bin	2.01496e-05	3073
bin	2.02208e-05	3119
bin	2.0292e-05	3097
bin	2.03632e-05	3007
bin	2.04344e-05	3007
bin	2.05056e-05	3113
bin	2.05768e-05	3045
bin	2.0648e-05	2989
bin	2.07192e-05	3054
bin	2.07904e-05	3079
bin	2.08616e-05	3014
bin	2.09328e-05	2948
bin	2.1004e-05	2974
bin	2.10752e-05	3014
bin	2.11464e-05	3087
bin	2.12176e-05	3036
bin	2.12888e-05	2974
bin	2.136e-05	3030
bin	2.14312e-05	3019
bin	2.15024e-05	3036
bin	2.15736e-05	3054
bin	2.16448e-05	3057
bin	2.1716e-05	3026
bin	2.17872e-05	3092
bin	2.18584e-05	3029
bin	2.19296e-05	2992
bin	2.20008e-05	2984
bin	2.2072e-05	2993
bin	2.21432e-05	2973
bin	2.22144e-05	2961
bin	2.22856e-05	2903
bin	2.23568e-05	2930
bin	2.2428e-05	2968
bin	2.24992e-05	2893
bin	2.25704e-05	2916
bin	2.26416e-05	2946
bin	2.27128e-05	2911
bin	2.2784e-05	3071
bin	2.28552e-05	3003
bin	2.29264e-05	2962
bin	2.29976e-05	3041
bin	2.30688e-05	3010
bin	2.314e-05	2934
bin	2.32112e-05	2978
bin	2.32824e-05	2963
bin	2.33536e-05	2851
bin	2.34248e-05	2958
bin	2.3496e-05	2988
bin	2.35672e-05	3013
bin	2.36384e-05	2922
bin	2.37096e-05	2909
bin	2.37808e-05	2874
bin	2.3852e-05	2844
bin	2.39232e-05	2772
bin	2.39944e-05	2891
bin	2.40656e-05	2860
bin	2.41368e-05	2816
bin	2.4208e-05	2797
bin	2.42792e-05	2788
bin	2.43504e-05	2846
bin	2.44216e-05	2775
bin	2.44928e-05	2804
bin	2.4564e-05	2774
bin	2.46352e-05	2715
bin	2.47064e-05	2843
bin	2.47776e-05	2823
bin	2.48488e-05	2826
bin	2.492e-05	2832
bin	2.49912e-05	2820
bin	2.50624e-05	2805
bin	2.51336e-05	2858
bin	2.52048e-05	2767
bin	2.5276e-05	2817
bin	2.53472e-05	2862
bin	2.54184e-05	2885
bin	2.54896e-05	2895
bin	2.55608e-05	2873
bin	2.5632e-05	2800
bin	2.57032e-05	2751
bin	2.57744e-05	2838
bin	2.58456e-05	2813
bin	2.59168e-05	2737
bin	2.5988e-05	2801
bin	2.60592e-05	2667
bin	2.61304e-05	2781
bin	2.62016e-05	2734
bin	2.62728e-05	2731
bin	2.6344e-05	2686
bin	2.64152e-05	2719
bin	2.64864e-05	2701
bin	2.65576e-05	2779
bin	2.66288e-05	2775
bin	2.67e-05	2720
bin	2.67712e-05	2720
bin	2.68424e-05	2713
bin	2.69136e-05	2728
bin	2.69848e-05	2741
bin	2.7056e-05	2655
bin	2.71272e-05	2684
bin	2.71984e-05	2714
bin	2.72696e-05	2802
bin	2.73408e-05	2810
bin	2.7412e-05	2694
bin	2.74832e-05	2735
bin	2.75544e-05	2675
bin	2.76256e-05	2741
bin	2.76968e-05	2827
bin	2.7768e-05	2780
bin	2.78392e-05	2748
bin	2.79104e-05	2696
bin	2.79816e-05	2816
bin	2.80528e-05	2779
bin	2.8124e-05	2816
bin	2.81952e-05	2746
bin	2.82664e-05	2756
bin	2.83376e-05	2675
bin	2.84088e-05	2760
bin	2.848e-05	2608
bin	2.85512e-05	2719
bin	2.86224e-05	2700
bin	2.86936e-05	2659
bin	2.87648e-05	2739
bin	2.8836e-05	2607
bin	2.89072e-05	2745
bin	2.89784e-05	2721
bin	2.90496e-05	2767
bin	2.91208e-05	2756
bin	2.9192e-05	2685
bin	2.92632e-05	2763
bin	2.93344e-05	2754
bin	2.94056e-05	2694
bin	2.94768e-05	2763
bin	2.9548e-05	2720
bin	2.96192e-05	2710
bin	2.96904e-05	2789
bin	2.97616e-05	2682
bin	2.98328e-05	2775
bin	2.9904e-05	2771
bin	2.99752e-05	2806
bin	3.00464e-05	2788
bin	3.01176e-05	2819
bin	3.01888e-05	2779
bin	3.026e-05	2800
bin	3.03312e-05	2780
bin	3.04024e-05	2953
bin	3.04736e-05	2865
bin	3.05448e-05	2817
bin	3.0616e-05	2816
bin	3.06872e-05	2756
bin	3.07584e-05	2754
bin	3.08296e-05	2863
bin	3.09008e-05	2910
bin	3.0972e-05	2865
bin	3.10432e-05	2848
bin	3.11144e-05	2896
bin	3.11856e-05	2816
bin	3.12568e-05	2686
bin	3.1328e-05	2782
bin	3.13992e-05	2792
bin	3.14704e-05	2718
bin	3.15416e-05	2769
bin	3.16128e-05	2742
bin	3.1684e-05	2704
bin	3.17552e-05	2697
bin	3.18264e-05	2808
bin	3.18976e-05	2684
bin	3.19688e-05	2776
bin	3.204e-05	2707
bin	3.21112e-05	2636
bin	3.21824e-05	2731
bin	3.22536e-05	2864
bin	3.23248e-05	2787
bin	3.2396e-05	2728
bin	3.24672e-05	2766
bin	3.25384e-05	2784
bin	3.26096e-05	2857
bin	3.26808e-05	2866
bin	3.2752e-05	2869
bin	3.28232e-05	2832
bin	3.28944e-05	2853
bin	3.29656e-05	2811
bin	3.30368e-05	2920
bin	3.3108e-05	2978
bin	3.31792e-05	2949
bin	3.32504e-05	2878
bin	3.33216e-05	2908
bin	3.33928e-05	2884
bin	3.3464e-05	2949
bin	3.35352e-05	2939
bin	3.36064e-05	2832
bin	3.36776e-05	2974
bin	3.37488e-05	2916
bin	3.382e-05	2929
bin	3.38912e-05	2952
bin	3.39624e-05	2924
bin	3.40336e-05	2856
bin	3.41048e-05	2813
bin	3.4176e-05	2883
bin	3.42472e-05	2870
bin	3.43184e-05	2867
bin	3.43896e-05	2884
bin	3.44608e-05	2915
bin	3.4532e-05	2861
bin	3.46032e-05	2734
bin	3.46744e-05	2794
bin	3.47456e-05	2742
bin	3.48168e-05	2869
bin	3.4888e-05	2871
bin	3.49592e-05	2849
bin	3.50304e-05	2816
bin	3.51016e-05	2806
bin	3.51728e-05	2845
bin	3.5244e-05	2925
bin	3.53152e-05	2812
bin	3.53864e-05	2827
bin	3.54576e-05	2912
bin	3.55288e-05	2882
bin	3.56e-05	2543955
statistic Torus3d_bub.timer 	"Life Times"
field count 6291456
field mean 0.00041493916552018
field stddev 0.00041927215691344
field sum 2610.571502547
field sqrsum 2.1891978344289
field min 5.2e-07
field max 0.002293436
bin	-INF	0
bin	0	43
bin	8.544e-07	950
bin	1.7088e-06	2964
bin	2.5632e-06	5477
bin	3.4176e-06	8557
bin	4.272e-06	11636
bin	5.1264e-06	14626
bin	5.9808e-06	17813
bin	6.8352e-06	20859
bin	7.6896e-06	24088
bin	8.544e-06	27470
bin	9.3984e-06	30273
bin	1.02528e-05	33047
bin	1.11072e-05	35098
bin	1.19616e-05	37506
bin	1.2816e-05	39857
bin	1.36704e-05	42013
bin	1.45248e-05	44078
bin	1.53792e-05	45833
bin	1.62336e-05	47561
bin	1.7088e-05	49128
bin	1.79424e-05	51434
bin	1.87968e-05	52680
bin	1.96512e-05	55059
bin	2.05056e-05	57067
bin	2.136e-05	58275
bin	2.22144e-05	59800
bin	2.30688e-05	61048
bin	2.39232e-05	61947
bin	2.47776e-05	62115
bin	2.5632e-05	61759
bin	2.64864e-05	61289
bin	2.73408e-05	59627
bin	2.81952e-05	57962
bin	2.90496e-05	55962
bin	2.9904e-05	53957
bin	3.07584e-05	51185
bin	3.16128e-05	47311
bin	3.24672e-05	43338
bin	3.33216e-05	39905
bin	3.4176e-05	36933
bin	3.50304e-05	33647
bin	3.58848e-05	31222
bin	3.67392e-05	28570
bin	3.75936e-05	26336
bin	3.8448e-05	24196
bin	3.93024e-05	22597
bin	4.01568e-05	21048
bin	4.10112e-05	19414
bin	4.18656e-05	17975
bin	4.272e-05	16788
bin	4.35744e-05	15989
bin	4.44288e-05	15363
bin	4.52832e-05	14583
bin	4.61376e-05	13859
bin	4.6992e-05	13545
bin	4.78464e-05	12989
bin	4.87008e-05	12843
bin	4.95552e-05	12462
bin	5.04096e-05	12325
bin	5.1264e-05	12024
bin	5.21184e-05	11914
bin	5.29728e-05	11774
bin	5.38272e-05	11596
bin	5.46816e-05	11470
bin	5.5536e-05	11688
bin	5.63904e-05	11373
bin	5.72448e-05	11114
bin	5.80992e-05	11150
bin	5.89536e-05	11021
bin	5.9808e-05	11175
bin	6.06624e-05	11035
bin	6.15168e-05	10969
bin	6.23712e-05	10998
bin	6.32256e-05	10753
bin	6.408e-05	10611
bin	6.49344e-05	10175
bin	6.57888e-05	10116
bin	6.66432e-05	9946
bin	6.74976e-05	9655
bin	6.8352e-05	9369
bin	6.92064e-05	9033
bin	7.00608e-05	8691
bin	7.09152e-05	8440
bin	7.17696e-05	8131
bin	7.2624e-05	7885
bin	7.34784e-05	7698
bin	7.43328e-05	7410
bin	7.51872e-05	7304
bin	7.60416e-05	7071
bin	7.6896e-05	7005
bin	7.77504e-05	6950
bin	7.86048e-05	6909
bin	7.94592e-05	6665
bin	8.03136e-05	6652
bin	8.1168e-05	6635
bin	8.20224e-05	6535
bin	8.28768e-05	6580
bin	8.37312e-05	6352
bin	8.45856e-05	6708
bin	8.544e-05	6581
bin	8.62944e-05	6611
bin	8.71488e-05	6544
bin	8.80032e-05	6657
bin	8.88576e-05	6793
bin	8.9712e-05	6715
bin	9.05664e-05	6830
bin	9.14208e-05	6995
bin	9.22752e-05	6900
bin	9.31296e-05	6899
bin	9.3984e-05	6827
bin	9.48384e-05	6759
bin	9.56928e-05	6717
bin	9.65472e-05	6603
bin	9.74016e-05	6290
bin	9.8256e-05	6411
bin	9.91104e-05	6201
bin	9.99648e-05	6153
bin	0.0001008192	6024
bin	0.0001016736	5965
bin	0.000102528	5773
bin	0.0001033824	5593
bin	0.0001042368	5533
bin	0.0001050912	5384
bin	0.0001059456	5328
bin	0.0001068	5073
bin	0.0001076544	5142
bin	0.0001085088	5053
bin	0.0001093632	5082
bin	0.0001102176	4970
bin	0.000111072	4876
bin	0.0001119264	5049
bin	0.0001127808	4835
bin	0.0001136352	4938
bin	0.0001144896	5111
bin	0.000115344	5117
bin	0.0001161984	5052
bin	0.0001170528	5083
bin	0.0001179072	5131
bin	0.0001187616	5244
bin	0.000119616	5196
bin	0.0001204704	5230
bin	0.0001213248	5365
bin	0.0001221792	5311
bin	0.0001230336	5290
bin	0.000123888	5134
bin	0.0001247424	5253
bin	0.0001255968	5264
bin	0.0001264512	5164
bin	0.0001273056	5198
bin	0.00012816	5073
bin	0.0001290144	5020
bin	0.0001298688	5003
bin	0.0001307232	4889
bin	0.0001315776	4842
bin	0.000132432	4551
bin	0.0001332864	4568
bin	0.0001341408	4470
bin	0.0001349952	4325
bin	0.0001358496	4291
bin	0.000136704	4287
bin	0.0001375584	4280
bin	0.0001384128	4121
bin	0.0001392672	4131
bin	0.0001401216	4070
bin	0.000140976	3929
bin	0.0001418304	3903
bin	0.0001426848	3933
bin	0.0001435392	3988
bin	0.0001443936	4096
bin	0.000145248	4086
bin	0.0001461024	4128
bin	0.0001469568	4253
bin	0.0001478112	4221
bin	0.0001486656	4199
bin	0.00014952	4219
bin	0.0001503744	4343
bin	0.0001512288	4214
bin	0.0001520832	4280
bin	0.0001529376	4221
bin	0.000153792	4398
bin	0.0001546464	4401
bin	0.0001555008	4292
bin	0.0001563552	4302
bin	0.0001572096	4331
bin	0.000158064	4173
bin	0.0001589184	4120
bin	0.0001597728	4029
bin	0.0001606272	4013
bin	0.0001614816	4039
bin	0.000162336	4042
bin	0.0001631904	3868
bin	0.0001640448	3803
bin	0.0001648992	3892
bin	0.0001657536	3730
bin	0.000166608	3688
bin	0.0001674624	3661
bin	0.0001683168	3637
bin	0.0001691712	3583
bin	0.0001700256	3707
bin	0.00017088	3587
bin	0.0001717344	3533
bin	0.0001725888	3468
bin	0.0001734432	3522
bin	0.0001742976	3590
bin	0.000175152	3482
bin	0.0001760064	3483
bin	0.0001768608	3490
bin	0.0001777152	3602
bin	0.0001785696	3549
bin	0.000179424	3741
bin	0.0001802784	3668
bin	0.0001811328	3653
bin	0.0001819872	3658
bin	0.0001828416	3675
bin	0.000183696	3600
bin	0.0001845504	3671
bin	0.0001854048	3737
bin	0.0001862592	3613
bin	0.0001871136	3643
bin	0.000187968	3683
bin	0.0001888224	3639
bin	0.0001896768	3587
bin	0.0001905312	3561
bin	0.0001913856	3528
bin	0.00019224	3514
bin	0.0001930944	3456
bin	0.0001939488	3426
bin	0.0001948032	3431
bin	0.0001956576	3272
bin	0.000196512	3233
bin	0.0001973664	3188
bin	0.0001982208	3132
bin	0.0001990752	3113
bin	0.0001999296	3095
bin	0.000200784	3033
bin	0.0002016384	2924
bin	0.0002024928	3001
bin	0.0002033472	2901
bin	0.0002042016	2954
bin	0.000205056	3044
bin	0.0002059104	3034
bin	0.0002067648	2942
bin	0.0002076192	3040
bin	0.0002084736	2970
bin	0.000209328	3089
bin	0.0002101824	3131
bin	0.0002110368	3287
bin	0.0002118912	3191
bin	0.0002127456	3296
bin	0.0002136	3211
bin	0.0002144544	3251
bin	0.0002153088	3206
bin	0.0002161632	3325
bin	0.0002170176	3389
bin	0.000217872	3297
bin	0.0002187264	3223
bin	0.0002195808	3221
bin	0.0002204352	3217
bin	0.0002212896	3244
bin	0.000222144	3062
bin	0.0002229984	3117
bin	0.0002238528	3070
bin	0.0002247072	3101
bin	0.0002255616	3046
bin	0.000226416	3030
bin	0.0002272704	3083
bin	0.0002281248	2904
bin	0.0002289792	2942
bin	0.0002298336	2914
bin	0.000230688	2942
bin	0.0002315424	2944
bin	0.0002323968	2976
bin	0.0002332512	2845
bin	0.0002341056	2966
bin	0.00023496	2937
bin	0.0002358144	2879
bin	0.0002366688	2950
bin	0.0002375232	2940
bin	0.0002383776	3030
bin	0.000239232	3019
bin	0.0002400864	3072
bin	0.0002409408	3044
bin	0.0002417952	3086
bin	0.0002426496	3051
bin	0.000243504	3105
bin	0.0002443584	3079
bin	0.0002452128	3131
bin	0.0002460672	3109
bin	0.0002469216	3231
bin	0.000247776	3147
bin	0.0002486304	3198
bin	0.0002494848	3199
bin	0.0002503392	3178
bin	0.0002511936	3110
bin	0.000252048	3065
bin	0.0002529024	3035
bin	0.0002537568	3028
bin	0.0002546112	2911
bin	0.0002554656	3007
bin	0.00025632	2905
bin	0.0002571744	2826
bin	0.0002580288	2891
bin	0.0002588832	2909
bin	0.0002597376	2763
bin	0.000260592	2806
bin	0.0002614464	2851
bin	0.0002623008	2806
bin	0.0002631552	2815
bin	0.0002640096	2886
bin	0.000264864	2841
bin	0.0002657184	2915
bin	0.0002665728	2898
bin	0.0002674272	2857
bin	0.0002682816	2808
bin	0.000269136	2898
bin	0.0002699904	2818
bin	0.0002708448	2841
bin	0.0002716992	2848
bin	0.0002725536	2871
bin	0.000273408	2892
bin	0.0002742624	2866
bin	0.0002751168	2859
bin	0.0002759712	2928
bin	0.0002768256	2978
bin	0.00027768	2965
bin	0.0002785344	2979
bin	0.0002793888	3032
bin	0.0002802432	3016
bin	0.0002810976	3030
bin	0.000281952	2985
bin	0.0002828064	3025
bin	0.0002836608	2906
bin	0.0002845152	2902
bin	0.0002853696	2886
bin	0.000286224	2718
bin	0.0002870784	2781
bin	0.0002879328	2697
bin	0.0002887872	2766
bin	0.0002896416	2733
bin	0.000290496	2708
bin	0.0002913504	2675
bin	0.0002922048	2614
bin	0.0002930592	2574
bin	0.0002939136	2745
bin	0.000294768	2699
bin	0.0002956224	2627
bin	0.0002964768	2734
bin	0.0002973312	2644
bin	0.0002981856	2724
bin	0.00029904	2790
bin	0.0002998944	2713
bin	0.0003007488	2725
bin	0.0003016032	2728
bin	0.0003024576	2737
bin	0.000303312	2723
bin	0.0003041664	2769
bin	0.0003050208	2791
bin	0.0003058752	2811
bin	0.0003067296	2901
bin	0.000307584	2884
bin	0.0003084384	2877
bin	0.0003092928	2811
bin	0.0003101472	2809
bin	0.0003110016	2775
bin	0.000311856	2773
bin	0.0003127104	2757
bin	0.0003135648	2765
bin	0.0003144192	2825
bin	0.0003152736	2679
bin	0.000316128	2664
bin	0.0003169824	2664
bin	0.0003178368	2665
bin	0.0003186912	2674
bin	0.0003195456	2706
bin	0.0003204	2647
bin	0.0003212544	2616
bin	0.0003221088	2560
bin	0.0003229632	2503
bin	0.0003238176	2544
bin	0.000324672	2520
bin	0.0003255264	2467
bin	0.0003263808	2469
bin	0.0003272352	2377
bin	0.0003280896	2479
bin	0.000328944	2506
bin	0.0003297984	2541
bin	0.0003306528	2523
bin	0.0003315072	2489
bin	0.0003323616	2677
bin	0.000333216	2602
bin	0.0003340704	2626
bin	0.0003349248	2526
bin	0.0003357792	2599
bin	0.0003366336	2585
bin	0.000337488	2665
bin	0.0003383424	2623
bin	0.0003391968	2640
bin	0.0003400512	2629
bin	0.0003409056	2635
bin	0.00034176	2619
bin	0.0003426144	2581
bin	0.0003434688	2627
bin	0.0003443232	2567
bin	0.0003451776	2533
bin	0.000346032	2549
bin	0.0003468864	2493
bin	0.0003477408	2545
bin	0.0003485952	2523
bin	0.0003494496	2556
bin	0.000350304	2540
bin	0.0003511584	2478
bin	0.0003520128	2486
bin	0.0003528672	2448
bin	0.0003537216	2402
bin	0.000354576	2534
bin	0.0003554304	2519
bin	0.0003562848	2507
bin	0.0003571392	2444
bin	0.0003579936	2550
bin	0.000358848	2582
bin	0.0003597024	2600
bin	0.0003605568	2566
bin	0.0003614112	2507
bin	0.0003622656	2592
bin	0.00036312	2622
bin	0.0003639744	2581
bin	0.0003648288	2634
bin	0.0003656832	2660
bin	0.0003665376	2680
bin	0.000367392	2724
bin	0.0003682464	2651
bin	0.0003691008	2579
bin	0.0003699552	2567
bin	0.0003708096	2616
bin	0.000371664	2620
bin	0.0003725184	2720
bin	0.0003733728	2615
bin	0.0003742272	2637
bin	0.0003750816	2531
bin	0.000375936	2565
bin	0.0003767904	2544
bin	0.0003776448	2572
bin	0.0003784992	2585
bin	0.0003793536	2586
bin	0.000380208	2469
bin	0.0003810624	2582
bin	0.0003819168	2603
bin	0.0003827712	2513
bin	0.0003836256	2481
bin	0.00038448	2489
bin	0.0003853344	2457
bin	0.0003861888	2473
bin	0.0003870432	2567
bin	0.0003878976	2611
bin	0.000388752	2568
bin	0.0003896064	2634
bin	0.0003904608	2528
bin	0.0003913152	2548
bin	0.0003921696	2521
bin	0.000393024	2580
bin	0.0003938784	2615
bin	0.0003947328	2693
bin	0.0003955872	2635
bin	0.0003964416	2617
bin	0.000397296	2625
bin	0.0003981504	2571
bin	0.0003990048	2680
bin	0.0003998592	2701
bin	0.0004007136	2727
bin	0.000401568	2693
bin	0.0004024224	2678
bin	0.0004032768	2638
bin	0.0004041312	2614
bin	0.0004049856	2580
bin	0.00040584	2557
bin	0.0004066944	2540
bin	0.0004075488	2620
bin	0.0004084032	2492
bin	0.0004092576	2493
bin	0.000410112	2465
bin	0.0004109664	2430
bin	0.0004118208	2506
bin	0.0004126752	2473
bin	0.0004135296	2452
bin	0.000414384	2556
bin	0.0004152384	2453
bin	0.0004160928	2466
bin	0.0004169472	2436
bin	0.0004178016	2517
bin	0.000418656	2451
bin	0.0004195104	2517
bin	0.0004203648	2420
bin	0.0004212192	2464
bin	0.0004220736	2425
bin	0.000422928	2428
bin	0.0004237824	2430
bin	0.0004246368	2566
bin	0.0004254912	2592
bin	0.0004263456	2611
bin	0.0004272	2579485
