version 2
run Tornado-17-20120710-00:26:08-25028
attr alg 1
attr buf 8
attr configname Tornado
attr datetime 20120710-00:26:08
attr delta 0.4
attr experiment Tornado
attr ext true
attr inifile altro.ini
attr iterationvars "$buf=8, $ext=true, $ofedge=2, $delta=0.4, $alg=1"
attr iterationvars2 "$buf=8, $ext=true, $ofedge=2, $delta=0.4, $alg=1, $repetition=0"
attr measurement "$buf=8, $ext=true, $ofedge=2, $delta=0.4, $alg=1"
attr network Torus3d_bub
attr ofedge 2
attr processid 25028
attr repetition 0
attr replication #0
attr resultdir altro-results
attr runnumber 17
attr seedset 17

scalar . 	alg 	1
scalar . 	buf 	8
scalar . 	delta 	0.4
scalar . 	ofedge 	2
scalar Torus3d_bub.timer 	#endTime 	0.008397682333227
scalar Torus3d_bub.timer 	#totalHops 	146853584
scalar Torus3d_bub.timer 	#totalPacks 	6291456
scalar Torus3d_bub.timer 	#totalDerouted 	3031966
scalar Torus3d_bub.timer 	#totalOutFlanked 	3031966
scalar Torus3d_bub.timer 	#totalCQRed 	0
scalar Torus3d_bub.timer 	#LB 	0.000786432
scalar Torus3d_bub.timer 	#ratio 	0.093648696008461
statistic Torus3d_bub.timer 	"Hop Times"
field count 6291456
field mean 0.00013275603278434
field stddev 0.00010096192437801
field sum 835.22873899723
field sqrsum 0.1750124061182
field min 4.43492045e-07
field max 0.000384750634915
bin	-INF	0
bin	0	0
bin	7.12e-08	0
bin	1.424e-07	0
bin	2.136e-07	0
bin	2.848e-07	0
bin	3.56e-07	0
bin	4.272e-07	14
bin	4.984e-07	34
bin	5.696e-07	79
bin	6.408e-07	243
bin	7.12e-07	766
bin	7.832e-07	1591
bin	8.544e-07	2864
bin	9.256e-07	4642
bin	9.968e-07	6109
bin	1.068e-06	8008
bin	1.1392e-06	9614
bin	1.2104e-06	11356
bin	1.2816e-06	13206
bin	1.3528e-06	15401
bin	1.424e-06	17522
bin	1.4952e-06	19487
bin	1.5664e-06	20870
bin	1.6376e-06	22679
bin	1.7088e-06	24786
bin	1.78e-06	25973
bin	1.8512e-06	27578
bin	1.9224e-06	28522
bin	1.9936e-06	29526
bin	2.0648e-06	30411
bin	2.136e-06	30735
bin	2.2072e-06	31259
bin	2.2784e-06	31475
bin	2.3496e-06	31624
bin	2.4208e-06	31402
bin	2.492e-06	30376
bin	2.5632e-06	29782
bin	2.6344e-06	28986
bin	2.7056e-06	27905
bin	2.7768e-06	25730
bin	2.848e-06	24764
bin	2.9192e-06	24149
bin	2.9904e-06	23707
bin	3.0616e-06	23643
bin	3.1328e-06	23776
bin	3.204e-06	23389
bin	3.2752e-06	23432
bin	3.3464e-06	22478
bin	3.4176e-06	21457
bin	3.4888e-06	19839
bin	3.56e-06	18015
bin	3.6312e-06	16483
bin	3.7024e-06	14524
bin	3.7736e-06	13413
bin	3.8448e-06	12475
bin	3.916e-06	11724
bin	3.9872e-06	10906
bin	4.0584e-06	10206
bin	4.1296e-06	9822
bin	4.2008e-06	9375
bin	4.272e-06	9187
bin	4.3432e-06	8806
bin	4.4144e-06	8563
bin	4.4856e-06	8409
bin	4.5568e-06	8423
bin	4.628e-06	8188
bin	4.6992e-06	7969
bin	4.7704e-06	8003
bin	4.8416e-06	7839
bin	4.9128e-06	7848
bin	4.984e-06	7661
bin	5.0552e-06	7425
bin	5.1264e-06	6943
bin	5.1976e-06	6769
bin	5.2688e-06	6510
bin	5.34e-06	6088
bin	5.4112e-06	6020
bin	5.4824e-06	6021
bin	5.5536e-06	5737
bin	5.6248e-06	5798
bin	5.696e-06	5660
bin	5.7672e-06	5574
bin	5.8384e-06	5520
bin	5.9096e-06	5724
bin	5.9808e-06	5487
bin	6.052e-06	5558
bin	6.1232e-06	5477
bin	6.1944e-06	5393
bin	6.2656e-06	5284
bin	6.3368e-06	5226
bin	6.408e-06	4899
bin	6.4792e-06	4557
bin	6.5504e-06	4530
bin	6.6216e-06	4530
bin	6.6928e-06	4252
bin	6.764e-06	4137
bin	6.8352e-06	4096
bin	6.9064e-06	3799
bin	6.9776e-06	3688
bin	7.0488e-06	3670
bin	7.12e-06	3557
bin	7.1912e-06	3517
bin	7.2624e-06	3448
bin	7.3336e-06	3380
bin	7.4048e-06	3433
bin	7.476e-06	3261
bin	7.5472e-06	3169
bin	7.6184e-06	3233
bin	7.6896e-06	3175
bin	7.7608e-06	3001
bin	7.832e-06	2967
bin	7.9032e-06	2929
bin	7.9744e-06	2877
bin	8.0456e-06	2847
bin	8.1168e-06	2889
bin	8.188e-06	2889
bin	8.2592e-06	2930
bin	8.3304e-06	2941
bin	8.4016e-06	2761
bin	8.4728e-06	2802
bin	8.544e-06	2775
bin	8.6152e-06	2661
bin	8.6864e-06	2631
bin	8.7576e-06	2695
bin	8.8288e-06	2624
bin	8.9e-06	2569
bin	8.9712e-06	2671
bin	9.0424e-06	2666
bin	9.1136e-06	2635
bin	9.1848e-06	2591
bin	9.256e-06	2474
bin	9.3272e-06	2531
bin	9.3984e-06	2421
bin	9.4696e-06	2404
bin	9.5408e-06	2295
bin	9.612e-06	2289
bin	9.6832e-06	2246
bin	9.7544e-06	2210
bin	9.8256e-06	2164
bin	9.8968e-06	2143
bin	9.968e-06	2135
bin	1.00392e-05	2189
bin	1.01104e-05	2050
bin	1.01816e-05	1997
bin	1.02528e-05	1921
bin	1.0324e-05	1913
bin	1.03952e-05	1908
bin	1.04664e-05	1845
bin	1.05376e-05	1872
bin	1.06088e-05	1951
bin	1.068e-05	1896
bin	1.07512e-05	2020
bin	1.08224e-05	1910
bin	1.08936e-05	1882
bin	1.09648e-05	1786
bin	1.1036e-05	1844
bin	1.11072e-05	1842
bin	1.11784e-05	1822
bin	1.12496e-05	1757
bin	1.13208e-05	1777
bin	1.1392e-05	1805
bin	1.14632e-05	1646
bin	1.15344e-05	1739
bin	1.16056e-05	1907
bin	1.16768e-05	1794
bin	1.1748e-05	1876
bin	1.18192e-05	1803
bin	1.18904e-05	1852
bin	1.19616e-05	1795
bin	1.20328e-05	1748
bin	1.2104e-05	1708
bin	1.21752e-05	1829
bin	1.22464e-05	1717
bin	1.23176e-05	1693
bin	1.23888e-05	1649
bin	1.246e-05	1656
bin	1.25312e-05	1672
bin	1.26024e-05	1600
bin	1.26736e-05	1566
bin	1.27448e-05	1466
bin	1.2816e-05	1521
bin	1.28872e-05	1517
bin	1.29584e-05	1476
bin	1.30296e-05	1443
bin	1.31008e-05	1476
bin	1.3172e-05	1454
bin	1.32432e-05	1441
bin	1.33144e-05	1385
bin	1.33856e-05	1444
bin	1.34568e-05	1507
bin	1.3528e-05	1456
bin	1.35992e-05	1457
bin	1.36704e-05	1359
bin	1.37416e-05	1379
bin	1.38128e-05	1438
bin	1.3884e-05	1454
bin	1.39552e-05	1466
bin	1.40264e-05	1425
bin	1.40976e-05	1411
bin	1.41688e-05	1379
bin	1.424e-05	1435
bin	1.43112e-05	1441
bin	1.43824e-05	1429
bin	1.44536e-05	1463
bin	1.45248e-05	1403
bin	1.4596e-05	1375
bin	1.46672e-05	1433
bin	1.47384e-05	1411
bin	1.48096e-05	1399
bin	1.48808e-05	1390
bin	1.4952e-05	1354
bin	1.50232e-05	1344
bin	1.50944e-05	1340
bin	1.51656e-05	1344
bin	1.52368e-05	1291
bin	1.5308e-05	1218
bin	1.53792e-05	1256
bin	1.54504e-05	1262
bin	1.55216e-05	1263
bin	1.55928e-05	1291
bin	1.5664e-05	1294
bin	1.57352e-05	1308
bin	1.58064e-05	1272
bin	1.58776e-05	1265
bin	1.59488e-05	1232
bin	1.602e-05	1241
bin	1.60912e-05	1218
bin	1.61624e-05	1237
bin	1.62336e-05	1225
bin	1.63048e-05	1228
bin	1.6376e-05	1166
bin	1.64472e-05	1175
bin	1.65184e-05	1283
bin	1.65896e-05	1243
bin	1.66608e-05	1243
bin	1.6732e-05	1245
bin	1.68032e-05	1307
bin	1.68744e-05	1282
bin	1.69456e-05	1244
bin	1.70168e-05	1186
bin	1.7088e-05	1171
bin	1.71592e-05	1243
bin	1.72304e-05	1158
bin	1.73016e-05	1159
bin	1.73728e-05	1217
bin	1.7444e-05	1189
bin	1.75152e-05	1195
bin	1.75864e-05	1210
bin	1.76576e-05	1318
bin	1.77288e-05	1187
bin	1.78e-05	1194
bin	1.78712e-05	1201
bin	1.79424e-05	1228
bin	1.80136e-05	1133
bin	1.80848e-05	1165
bin	1.8156e-05	1199
bin	1.82272e-05	1209
bin	1.82984e-05	1067
bin	1.83696e-05	1069
bin	1.84408e-05	1062
bin	1.8512e-05	1084
bin	1.85832e-05	1039
bin	1.86544e-05	1100
bin	1.87256e-05	1131
bin	1.87968e-05	1082
bin	1.8868e-05	1102
bin	1.89392e-05	1045
bin	1.90104e-05	993
bin	1.90816e-05	1057
bin	1.91528e-05	1082
bin	1.9224e-05	1101
bin	1.92952e-05	1010
bin	1.93664e-05	1144
bin	1.94376e-05	1146
bin	1.95088e-05	1119
bin	1.958e-05	1092
bin	1.96512e-05	1113
bin	1.97224e-05	1159
bin	1.97936e-05	1148
bin	1.98648e-05	1144
bin	1.9936e-05	1072
bin	2.00072e-05	1112
bin	2.00784e-05	1140
bin	2.01496e-05	1105
bin	2.02208e-05	1080
bin	2.0292e-05	1037
bin	2.03632e-05	1002
bin	2.04344e-05	1043
bin	2.05056e-05	999
bin	2.05768e-05	1064
bin	2.0648e-05	1063
bin	2.07192e-05	1008
bin	2.07904e-05	1153
bin	2.08616e-05	1082
bin	2.09328e-05	1085
bin	2.1004e-05	1021
bin	2.10752e-05	1062
bin	2.11464e-05	978
bin	2.12176e-05	996
bin	2.12888e-05	985
bin	2.136e-05	1043
bin	2.14312e-05	1023
bin	2.15024e-05	953
bin	2.15736e-05	963
bin	2.16448e-05	986
bin	2.1716e-05	1001
bin	2.17872e-05	962
bin	2.18584e-05	949
bin	2.19296e-05	966
bin	2.20008e-05	1024
bin	2.2072e-05	1007
bin	2.21432e-05	1021
bin	2.22144e-05	1068
bin	2.22856e-05	1075
bin	2.23568e-05	1051
bin	2.2428e-05	965
bin	2.24992e-05	1070
bin	2.25704e-05	989
bin	2.26416e-05	1024
bin	2.27128e-05	1011
bin	2.2784e-05	957
bin	2.28552e-05	937
bin	2.29264e-05	965
bin	2.29976e-05	921
bin	2.30688e-05	897
bin	2.314e-05	964
bin	2.32112e-05	947
bin	2.32824e-05	945
bin	2.33536e-05	971
bin	2.34248e-05	953
bin	2.3496e-05	922
bin	2.35672e-05	992
bin	2.36384e-05	1006
bin	2.37096e-05	954
bin	2.37808e-05	949
bin	2.3852e-05	1034
bin	2.39232e-05	997
bin	2.39944e-05	964
bin	2.40656e-05	888
bin	2.41368e-05	913
bin	2.4208e-05	982
bin	2.42792e-05	939
bin	2.43504e-05	1025
bin	2.44216e-05	940
bin	2.44928e-05	975
bin	2.4564e-05	896
bin	2.46352e-05	898
bin	2.47064e-05	890
bin	2.47776e-05	911
bin	2.48488e-05	925
bin	2.492e-05	883
bin	2.49912e-05	922
bin	2.50624e-05	873
bin	2.51336e-05	887
bin	2.52048e-05	864
bin	2.5276e-05	951
bin	2.53472e-05	1021
bin	2.54184e-05	1038
bin	2.54896e-05	1030
bin	2.55608e-05	935
bin	2.5632e-05	944
bin	2.57032e-05	949
bin	2.57744e-05	928
bin	2.58456e-05	938
bin	2.59168e-05	929
bin	2.5988e-05	950
bin	2.60592e-05	976
bin	2.61304e-05	898
bin	2.62016e-05	949
bin	2.62728e-05	944
bin	2.6344e-05	1015
bin	2.64152e-05	1012
bin	2.64864e-05	941
bin	2.65576e-05	914
bin	2.66288e-05	981
bin	2.67e-05	972
bin	2.67712e-05	958
bin	2.68424e-05	949
bin	2.69136e-05	897
bin	2.69848e-05	956
bin	2.7056e-05	917
bin	2.71272e-05	992
bin	2.71984e-05	894
bin	2.72696e-05	930
bin	2.73408e-05	984
bin	2.7412e-05	936
bin	2.74832e-05	949
bin	2.75544e-05	895
bin	2.76256e-05	887
bin	2.76968e-05	881
bin	2.7768e-05	894
bin	2.78392e-05	917
bin	2.79104e-05	913
bin	2.79816e-05	950
bin	2.80528e-05	902
bin	2.8124e-05	1022
bin	2.81952e-05	967
bin	2.82664e-05	1005
bin	2.83376e-05	952
bin	2.84088e-05	1042
bin	2.848e-05	1007
bin	2.85512e-05	995
bin	2.86224e-05	961
bin	2.86936e-05	935
bin	2.87648e-05	965
bin	2.8836e-05	937
bin	2.89072e-05	966
bin	2.89784e-05	916
bin	2.90496e-05	892
bin	2.91208e-05	897
bin	2.9192e-05	927
bin	2.92632e-05	893
bin	2.93344e-05	918
bin	2.94056e-05	891
bin	2.94768e-05	907
bin	2.9548e-05	859
bin	2.96192e-05	889
bin	2.96904e-05	916
bin	2.97616e-05	988
bin	2.98328e-05	916
bin	2.9904e-05	847
bin	2.99752e-05	889
bin	3.00464e-05	876
bin	3.01176e-05	873
bin	3.01888e-05	925
bin	3.026e-05	923
bin	3.03312e-05	942
bin	3.04024e-05	908
bin	3.04736e-05	895
bin	3.05448e-05	862
bin	3.0616e-05	945
bin	3.06872e-05	926
bin	3.07584e-05	943
bin	3.08296e-05	895
bin	3.09008e-05	913
bin	3.0972e-05	863
bin	3.10432e-05	882
bin	3.11144e-05	901
bin	3.11856e-05	885
bin	3.12568e-05	914
bin	3.1328e-05	932
bin	3.13992e-05	954
bin	3.14704e-05	887
bin	3.15416e-05	936
bin	3.16128e-05	890
bin	3.1684e-05	974
bin	3.17552e-05	932
bin	3.18264e-05	917
bin	3.18976e-05	899
bin	3.19688e-05	902
bin	3.204e-05	904
bin	3.21112e-05	843
bin	3.21824e-05	863
bin	3.22536e-05	867
bin	3.23248e-05	889
bin	3.2396e-05	925
bin	3.24672e-05	902
bin	3.25384e-05	870
bin	3.26096e-05	872
bin	3.26808e-05	853
bin	3.2752e-05	887
bin	3.28232e-05	919
bin	3.28944e-05	906
bin	3.29656e-05	858
bin	3.30368e-05	830
bin	3.3108e-05	877
bin	3.31792e-05	951
bin	3.32504e-05	946
bin	3.33216e-05	904
bin	3.33928e-05	844
bin	3.3464e-05	841
bin	3.35352e-05	911
bin	3.36064e-05	916
bin	3.36776e-05	857
bin	3.37488e-05	893
bin	3.382e-05	894
bin	3.38912e-05	919
bin	3.39624e-05	912
bin	3.40336e-05	913
bin	3.41048e-05	866
bin	3.4176e-05	859
bin	3.42472e-05	927
bin	3.43184e-05	891
bin	3.43896e-05	924
bin	3.44608e-05	937
bin	3.4532e-05	905
bin	3.46032e-05	830
bin	3.46744e-05	851
bin	3.47456e-05	910
bin	3.48168e-05	910
bin	3.4888e-05	830
bin	3.49592e-05	871
bin	3.50304e-05	909
bin	3.51016e-05	913
bin	3.51728e-05	833
bin	3.5244e-05	866
bin	3.53152e-05	919
bin	3.53864e-05	925
bin	3.54576e-05	852
bin	3.55288e-05	886
bin	3.56e-05	4550015
statistic Torus3d_bub.timer 	"Life Times"
field count 6291456
field mean 0.003078136725007
field stddev 0.0023121092762343
field sum 19365.961767366
field sqrsum 93.244248471962
field min 9.313332949e-06
field max 0.008079763333227
bin	-INF	0
bin	0	0
bin	8.544e-07	0
bin	1.7088e-06	0
bin	2.5632e-06	0
bin	3.4176e-06	0
bin	4.272e-06	0
bin	5.1264e-06	0
bin	5.9808e-06	0
bin	6.8352e-06	0
bin	7.6896e-06	0
bin	8.544e-06	1
bin	9.3984e-06	12
bin	1.02528e-05	13
bin	1.11072e-05	19
bin	1.19616e-05	36
bin	1.2816e-05	55
bin	1.36704e-05	99
bin	1.45248e-05	186
bin	1.53792e-05	392
bin	1.62336e-05	575
bin	1.7088e-05	745
bin	1.79424e-05	881
bin	1.87968e-05	1194
bin	1.96512e-05	1651
bin	2.05056e-05	1851
bin	2.136e-05	2205
bin	2.22144e-05	2709
bin	2.30688e-05	3033
bin	2.39232e-05	3466
bin	2.47776e-05	3795
bin	2.5632e-05	4419
bin	2.64864e-05	4669
bin	2.73408e-05	5099
bin	2.81952e-05	5604
bin	2.90496e-05	6177
bin	2.9904e-05	6323
bin	3.07584e-05	7027
bin	3.16128e-05	7316
bin	3.24672e-05	7473
bin	3.33216e-05	8090
bin	3.4176e-05	8524
bin	3.50304e-05	8920
bin	3.58848e-05	9427
bin	3.67392e-05	9908
bin	3.75936e-05	10526
bin	3.8448e-05	10962
bin	3.93024e-05	11249
bin	4.01568e-05	12096
bin	4.10112e-05	12328
bin	4.18656e-05	12754
bin	4.272e-05	13265
bin	4.35744e-05	13457
bin	4.44288e-05	14055
bin	4.52832e-05	14084
bin	4.61376e-05	14534
bin	4.6992e-05	15036
bin	4.78464e-05	15055
bin	4.87008e-05	15397
bin	4.95552e-05	15925
bin	5.04096e-05	15961
bin	5.1264e-05	16335
bin	5.21184e-05	16128
bin	5.29728e-05	16377
bin	5.38272e-05	16634
bin	5.46816e-05	16839
bin	5.5536e-05	16894
bin	5.63904e-05	17337
bin	5.72448e-05	17289
bin	5.80992e-05	17290
bin	5.89536e-05	17244
bin	5.9808e-05	17301
bin	6.06624e-05	17715
bin	6.15168e-05	17637
bin	6.23712e-05	17723
bin	6.32256e-05	17271
bin	6.408e-05	17442
bin	6.49344e-05	17407
bin	6.57888e-05	17208
bin	6.66432e-05	17412
bin	6.74976e-05	17088
bin	6.8352e-05	16583
bin	6.92064e-05	16115
bin	7.00608e-05	15512
bin	7.09152e-05	14971
bin	7.17696e-05	14312
bin	7.2624e-05	13857
bin	7.34784e-05	13225
bin	7.43328e-05	12109
bin	7.51872e-05	11397
bin	7.60416e-05	10628
bin	7.6896e-05	10258
bin	7.77504e-05	9330
bin	7.86048e-05	9064
bin	7.94592e-05	8529
bin	8.03136e-05	8023
bin	8.1168e-05	7713
bin	8.20224e-05	7332
bin	8.28768e-05	7100
bin	8.37312e-05	6705
bin	8.45856e-05	6388
bin	8.544e-05	6031
bin	8.62944e-05	5979
bin	8.71488e-05	5729
bin	8.80032e-05	5551
bin	8.88576e-05	5464
bin	8.9712e-05	5334
bin	9.05664e-05	5244
bin	9.14208e-05	4961
bin	9.22752e-05	4817
bin	9.31296e-05	4900
bin	9.3984e-05	4715
bin	9.48384e-05	4662
bin	9.56928e-05	4671
bin	9.65472e-05	4497
bin	9.74016e-05	4464
bin	9.8256e-05	4252
bin	9.91104e-05	4309
bin	9.99648e-05	4227
bin	0.0001008192	4317
bin	0.0001016736	4283
bin	0.000102528	4270
bin	0.0001033824	4197
bin	0.0001042368	4167
bin	0.0001050912	4148
bin	0.0001059456	4120
bin	0.0001068	4261
bin	0.0001076544	4037
bin	0.0001085088	3973
bin	0.0001093632	4097
bin	0.0001102176	4033
bin	0.000111072	4064
bin	0.0001119264	3936
bin	0.0001127808	3962
bin	0.0001136352	3932
bin	0.0001144896	3958
bin	0.000115344	3996
bin	0.0001161984	3928
bin	0.0001170528	4035
bin	0.0001179072	3877
bin	0.0001187616	3976
bin	0.000119616	4003
bin	0.0001204704	4027
bin	0.0001213248	3966
bin	0.0001221792	4028
bin	0.0001230336	4089
bin	0.000123888	4001
bin	0.0001247424	4189
bin	0.0001255968	3973
bin	0.0001264512	3950
bin	0.0001273056	3955
bin	0.00012816	3772
bin	0.0001290144	3811
bin	0.0001298688	3683
bin	0.0001307232	3554
bin	0.0001315776	3505
bin	0.000132432	3377
bin	0.0001332864	3291
bin	0.0001341408	3241
bin	0.0001349952	2993
bin	0.0001358496	2906
bin	0.000136704	2896
bin	0.0001375584	2876
bin	0.0001384128	2691
bin	0.0001392672	2639
bin	0.0001401216	2539
bin	0.000140976	2480
bin	0.0001418304	2492
bin	0.0001426848	2413
bin	0.0001435392	2349
bin	0.0001443936	2275
bin	0.000145248	2121
bin	0.0001461024	2151
bin	0.0001469568	2092
bin	0.0001478112	2029
bin	0.0001486656	2021
bin	0.00014952	1937
bin	0.0001503744	1948
bin	0.0001512288	1947
bin	0.0001520832	1940
bin	0.0001529376	1818
bin	0.000153792	1845
bin	0.0001546464	1893
bin	0.0001555008	1845
bin	0.0001563552	1879
bin	0.0001572096	1789
bin	0.000158064	1899
bin	0.0001589184	1812
bin	0.0001597728	1802
bin	0.0001606272	1787
bin	0.0001614816	1836
bin	0.000162336	1765
bin	0.0001631904	1770
bin	0.0001640448	1741
bin	0.0001648992	1738
bin	0.0001657536	1823
bin	0.000166608	1752
bin	0.0001674624	1741
bin	0.0001683168	1684
bin	0.0001691712	1663
bin	0.0001700256	1748
bin	0.00017088	1763
bin	0.0001717344	1782
bin	0.0001725888	1756
bin	0.0001734432	1777
bin	0.0001742976	1756
bin	0.000175152	1829
bin	0.0001760064	1750
bin	0.0001768608	1736
bin	0.0001777152	1830
bin	0.0001785696	1804
bin	0.000179424	1757
bin	0.0001802784	1745
bin	0.0001811328	1745
bin	0.0001819872	1720
bin	0.0001828416	1652
bin	0.000183696	1755
bin	0.0001845504	1733
bin	0.0001854048	1681
bin	0.0001862592	1715
bin	0.0001871136	1659
bin	0.000187968	1654
bin	0.0001888224	1703
bin	0.0001896768	1644
bin	0.0001905312	1582
bin	0.0001913856	1697
bin	0.00019224	1604
bin	0.0001930944	1577
bin	0.0001939488	1510
bin	0.0001948032	1478
bin	0.0001956576	1476
bin	0.000196512	1438
bin	0.0001973664	1428
bin	0.0001982208	1379
bin	0.0001990752	1363
bin	0.0001999296	1380
bin	0.000200784	1334
bin	0.0002016384	1249
bin	0.0002024928	1301
bin	0.0002033472	1285
bin	0.0002042016	1218
bin	0.000205056	1251
bin	0.0002059104	1234
bin	0.0002067648	1201
bin	0.0002076192	1262
bin	0.0002084736	1202
bin	0.000209328	1230
bin	0.0002101824	1144
bin	0.0002110368	1180
bin	0.0002118912	1208
bin	0.0002127456	1096
bin	0.0002136	1190
bin	0.0002144544	1164
bin	0.0002153088	1122
bin	0.0002161632	1091
bin	0.0002170176	1139
bin	0.000217872	1141
bin	0.0002187264	1111
bin	0.0002195808	1090
bin	0.0002204352	1078
bin	0.0002212896	1094
bin	0.000222144	1154
bin	0.0002229984	1144
bin	0.0002238528	1132
bin	0.0002247072	1121
bin	0.0002255616	1126
bin	0.000226416	1140
bin	0.0002272704	1108
bin	0.0002281248	1135
bin	0.0002289792	1132
bin	0.0002298336	1097
bin	0.000230688	1062
bin	0.0002315424	1107
bin	0.0002323968	1109
bin	0.0002332512	1116
bin	0.0002341056	1140
bin	0.00023496	1101
bin	0.0002358144	1051
bin	0.0002366688	1121
bin	0.0002375232	1115
bin	0.0002383776	1048
bin	0.000239232	1100
bin	0.0002400864	1066
bin	0.0002409408	990
bin	0.0002417952	1065
bin	0.0002426496	1038
bin	0.000243504	1061
bin	0.0002443584	1134
bin	0.0002452128	1031
bin	0.0002460672	1064
bin	0.0002469216	1122
bin	0.000247776	1081
bin	0.0002486304	1107
bin	0.0002494848	1113
bin	0.0002503392	1110
bin	0.0002511936	1045
bin	0.000252048	1070
bin	0.0002529024	1061
bin	0.0002537568	1018
bin	0.0002546112	1011
bin	0.0002554656	1077
bin	0.00025632	1051
bin	0.0002571744	998
bin	0.0002580288	965
bin	0.0002588832	921
bin	0.0002597376	957
bin	0.000260592	970
bin	0.0002614464	968
bin	0.0002623008	951
bin	0.0002631552	913
bin	0.0002640096	933
bin	0.000264864	898
bin	0.0002657184	856
bin	0.0002665728	870
bin	0.0002674272	852
bin	0.0002682816	888
bin	0.000269136	887
bin	0.0002699904	851
bin	0.0002708448	852
bin	0.0002716992	846
bin	0.0002725536	822
bin	0.000273408	817
bin	0.0002742624	819
bin	0.0002751168	850
bin	0.0002759712	829
bin	0.0002768256	834
bin	0.00027768	855
bin	0.0002785344	867
bin	0.0002793888	836
bin	0.0002802432	852
bin	0.0002810976	853
bin	0.000281952	873
bin	0.0002828064	821
bin	0.0002836608	797
bin	0.0002845152	831
bin	0.0002853696	830
bin	0.000286224	787
bin	0.0002870784	781
bin	0.0002879328	741
bin	0.0002887872	795
bin	0.0002896416	785
bin	0.000290496	777
bin	0.0002913504	835
bin	0.0002922048	796
bin	0.0002930592	813
bin	0.0002939136	843
bin	0.000294768	829
bin	0.0002956224	825
bin	0.0002964768	775
bin	0.0002973312	824
bin	0.0002981856	750
bin	0.00029904	837
bin	0.0002998944	801
bin	0.0003007488	833
bin	0.0003016032	802
bin	0.0003024576	881
bin	0.000303312	873
bin	0.0003041664	862
bin	0.0003050208	833
bin	0.0003058752	849
bin	0.0003067296	837
bin	0.000307584	814
bin	0.0003084384	839
bin	0.0003092928	890
bin	0.0003101472	847
bin	0.0003110016	816
bin	0.000311856	820
bin	0.0003127104	853
bin	0.0003135648	800
bin	0.0003144192	764
bin	0.0003152736	780
bin	0.000316128	758
bin	0.0003169824	746
bin	0.0003178368	751
bin	0.0003186912	753
bin	0.0003195456	751
bin	0.0003204	754
bin	0.0003212544	751
bin	0.0003221088	749
bin	0.0003229632	735
bin	0.0003238176	706
bin	0.000324672	711
bin	0.0003255264	762
bin	0.0003263808	732
bin	0.0003272352	750
bin	0.0003280896	738
bin	0.000328944	744
bin	0.0003297984	730
bin	0.0003306528	715
bin	0.0003315072	666
bin	0.0003323616	718
bin	0.000333216	714
bin	0.0003340704	654
bin	0.0003349248	666
bin	0.0003357792	687
bin	0.0003366336	690
bin	0.000337488	710
bin	0.0003383424	696
bin	0.0003391968	688
bin	0.0003400512	705
bin	0.0003409056	650
bin	0.00034176	629
bin	0.0003426144	678
bin	0.0003434688	633
bin	0.0003443232	643
bin	0.0003451776	640
bin	0.000346032	645
bin	0.0003468864	690
bin	0.0003477408	673
bin	0.0003485952	677
bin	0.0003494496	647
bin	0.000350304	621
bin	0.0003511584	680
bin	0.0003520128	662
bin	0.0003528672	722
bin	0.0003537216	695
bin	0.000354576	644
bin	0.0003554304	657
bin	0.0003562848	672
bin	0.0003571392	665
bin	0.0003579936	684
bin	0.000358848	626
bin	0.0003597024	695
bin	0.0003605568	709
bin	0.0003614112	667
bin	0.0003622656	664
bin	0.00036312	684
bin	0.0003639744	710
bin	0.0003648288	641
bin	0.0003656832	674
bin	0.0003665376	695
bin	0.000367392	646
bin	0.0003682464	655
bin	0.0003691008	646
bin	0.0003699552	700
bin	0.0003708096	737
bin	0.000371664	755
bin	0.0003725184	693
bin	0.0003733728	652
bin	0.0003742272	673
bin	0.0003750816	688
bin	0.000375936	682
bin	0.0003767904	714
bin	0.0003776448	663
bin	0.0003784992	632
bin	0.0003793536	657
bin	0.000380208	671
bin	0.0003810624	661
bin	0.0003819168	615
bin	0.0003827712	615
bin	0.0003836256	605
bin	0.00038448	594
bin	0.0003853344	580
bin	0.0003861888	591
bin	0.0003870432	594
bin	0.0003878976	578
bin	0.000388752	595
bin	0.0003896064	576
bin	0.0003904608	581
bin	0.0003913152	587
bin	0.0003921696	618
bin	0.000393024	619
bin	0.0003938784	591
bin	0.0003947328	575
bin	0.0003955872	558
bin	0.0003964416	541
bin	0.000397296	546
bin	0.0003981504	557
bin	0.0003990048	540
bin	0.0003998592	582
bin	0.0004007136	559
bin	0.000401568	560
bin	0.0004024224	562
bin	0.0004032768	569
bin	0.0004041312	576
bin	0.0004049856	589
bin	0.00040584	568
bin	0.0004066944	628
bin	0.0004075488	613
bin	0.0004084032	626
bin	0.0004092576	578
bin	0.000410112	600
bin	0.0004109664	639
bin	0.0004118208	594
bin	0.0004126752	644
bin	0.0004135296	613
bin	0.000414384	618
bin	0.0004152384	617
bin	0.0004160928	634
bin	0.0004169472	636
bin	0.0004178016	609
bin	0.000418656	563
bin	0.0004195104	598
bin	0.0004203648	624
bin	0.0004212192	630
bin	0.0004220736	646
bin	0.000422928	626
bin	0.0004237824	628
bin	0.0004246368	613
bin	0.0004254912	621
bin	0.0004263456	608
bin	0.0004272	4780752
