version 2
run Tornado-29-20120710-02:16:41-25056
attr alg 1
attr buf 8
attr configname Tornado
attr datetime 20120710-02:16:41
attr delta 0.4
attr experiment Tornado
attr ext false
attr inifile altro.ini
attr iterationvars "$buf=8, $ext=false, $ofedge=1, $delta=0.4, $alg=1"
attr iterationvars2 "$buf=8, $ext=false, $ofedge=1, $delta=0.4, $alg=1, $repetition=0"
attr measurement "$buf=8, $ext=false, $ofedge=1, $delta=0.4, $alg=1"
attr network Torus3d_bub
attr ofedge 1
attr processid 25056
attr repetition 0
attr replication #0
attr resultdir altro-results
attr runnumber 29
attr seedset 29

scalar . 	alg 	1
scalar . 	buf 	8
scalar . 	delta 	0.4
scalar . 	ofedge 	1
scalar Torus3d_bub.timer 	#endTime 	0.023705601999999
scalar Torus3d_bub.timer 	#totalHops 	156659010
scalar Torus3d_bub.timer 	#totalPacks 	6291456
scalar Torus3d_bub.timer 	#totalDerouted 	4952778
scalar Torus3d_bub.timer 	#totalOutFlanked 	4952778
scalar Torus3d_bub.timer 	#totalCQRed 	0
scalar Torus3d_bub.timer 	#LB 	0.000786432
scalar Torus3d_bub.timer 	#ratio 	0.033174943205409
statistic Torus3d_bub.timer 	"Hop Times"
field count 6291456
field mean 0.00068001691529063
field stddev 0.00020754315269651
field sum 4278.2965018067
field sqrsum 3.1803131306147
field min 8.05650793e-07
field max 0.001125719650793
bin	-INF	0
bin	0	0
bin	7.12e-08	0
bin	1.424e-07	0
bin	2.136e-07	0
bin	2.848e-07	0
bin	3.56e-07	0
bin	4.272e-07	0
bin	4.984e-07	0
bin	5.696e-07	0
bin	6.408e-07	0
bin	7.12e-07	0
bin	7.832e-07	4
bin	8.544e-07	19
bin	9.256e-07	29
bin	9.968e-07	66
bin	1.068e-06	59
bin	1.1392e-06	66
bin	1.2104e-06	188
bin	1.2816e-06	271
bin	1.3528e-06	421
bin	1.424e-06	396
bin	1.4952e-06	592
bin	1.5664e-06	1361
bin	1.6376e-06	1077
bin	1.7088e-06	1795
bin	1.78e-06	1911
bin	1.8512e-06	1942
bin	1.9224e-06	1945
bin	1.9936e-06	1911
bin	2.0648e-06	2146
bin	2.136e-06	2398
bin	2.2072e-06	2631
bin	2.2784e-06	2836
bin	2.3496e-06	2701
bin	2.4208e-06	2798
bin	2.492e-06	2713
bin	2.5632e-06	2757
bin	2.6344e-06	2563
bin	2.7056e-06	2541
bin	2.7768e-06	2528
bin	2.848e-06	2227
bin	2.9192e-06	2126
bin	2.9904e-06	1942
bin	3.0616e-06	1750
bin	3.1328e-06	1592
bin	3.204e-06	1503
bin	3.2752e-06	1273
bin	3.3464e-06	1218
bin	3.4176e-06	1168
bin	3.4888e-06	1083
bin	3.56e-06	1032
bin	3.6312e-06	931
bin	3.7024e-06	905
bin	3.7736e-06	877
bin	3.8448e-06	911
bin	3.916e-06	885
bin	3.9872e-06	949
bin	4.0584e-06	880
bin	4.1296e-06	860
bin	4.2008e-06	892
bin	4.272e-06	836
bin	4.3432e-06	909
bin	4.4144e-06	925
bin	4.4856e-06	913
bin	4.5568e-06	1018
bin	4.628e-06	955
bin	4.6992e-06	904
bin	4.7704e-06	1013
bin	4.8416e-06	942
bin	4.9128e-06	927
bin	4.984e-06	996
bin	5.0552e-06	962
bin	5.1264e-06	911
bin	5.1976e-06	840
bin	5.2688e-06	792
bin	5.34e-06	816
bin	5.4112e-06	724
bin	5.4824e-06	688
bin	5.5536e-06	677
bin	5.6248e-06	682
bin	5.696e-06	696
bin	5.7672e-06	623
bin	5.8384e-06	626
bin	5.9096e-06	590
bin	5.9808e-06	529
bin	6.052e-06	534
bin	6.1232e-06	502
bin	6.1944e-06	493
bin	6.2656e-06	493
bin	6.3368e-06	479
bin	6.408e-06	471
bin	6.4792e-06	456
bin	6.5504e-06	463
bin	6.6216e-06	448
bin	6.6928e-06	462
bin	6.764e-06	426
bin	6.8352e-06	395
bin	6.9064e-06	358
bin	6.9776e-06	382
bin	7.0488e-06	367
bin	7.12e-06	373
bin	7.1912e-06	446
bin	7.2624e-06	443
bin	7.3336e-06	367
bin	7.4048e-06	374
bin	7.476e-06	390
bin	7.5472e-06	361
bin	7.6184e-06	343
bin	7.6896e-06	320
bin	7.7608e-06	303
bin	7.832e-06	272
bin	7.9032e-06	306
bin	7.9744e-06	222
bin	8.0456e-06	263
bin	8.1168e-06	284
bin	8.188e-06	263
bin	8.2592e-06	249
bin	8.3304e-06	223
bin	8.4016e-06	229
bin	8.4728e-06	242
bin	8.544e-06	255
bin	8.6152e-06	227
bin	8.6864e-06	254
bin	8.7576e-06	247
bin	8.8288e-06	243
bin	8.9e-06	278
bin	8.9712e-06	237
bin	9.0424e-06	228
bin	9.1136e-06	272
bin	9.1848e-06	245
bin	9.256e-06	231
bin	9.3272e-06	236
bin	9.3984e-06	235
bin	9.4696e-06	198
bin	9.5408e-06	211
bin	9.612e-06	212
bin	9.6832e-06	220
bin	9.7544e-06	212
bin	9.8256e-06	183
bin	9.8968e-06	195
bin	9.968e-06	224
bin	1.00392e-05	177
bin	1.01104e-05	166
bin	1.01816e-05	187
bin	1.02528e-05	179
bin	1.0324e-05	158
bin	1.03952e-05	177
bin	1.04664e-05	173
bin	1.05376e-05	199
bin	1.06088e-05	178
bin	1.068e-05	163
bin	1.07512e-05	129
bin	1.08224e-05	131
bin	1.08936e-05	148
bin	1.09648e-05	180
bin	1.1036e-05	131
bin	1.11072e-05	145
bin	1.11784e-05	116
bin	1.12496e-05	143
bin	1.13208e-05	147
bin	1.1392e-05	142
bin	1.14632e-05	122
bin	1.15344e-05	149
bin	1.16056e-05	160
bin	1.16768e-05	144
bin	1.1748e-05	164
bin	1.18192e-05	156
bin	1.18904e-05	145
bin	1.19616e-05	167
bin	1.20328e-05	134
bin	1.2104e-05	134
bin	1.21752e-05	130
bin	1.22464e-05	126
bin	1.23176e-05	162
bin	1.23888e-05	133
bin	1.246e-05	149
bin	1.25312e-05	124
bin	1.26024e-05	115
bin	1.26736e-05	128
bin	1.27448e-05	131
bin	1.2816e-05	131
bin	1.28872e-05	87
bin	1.29584e-05	100
bin	1.30296e-05	98
bin	1.31008e-05	80
bin	1.3172e-05	95
bin	1.32432e-05	94
bin	1.33144e-05	114
bin	1.33856e-05	81
bin	1.34568e-05	99
bin	1.3528e-05	83
bin	1.35992e-05	82
bin	1.36704e-05	72
bin	1.37416e-05	103
bin	1.38128e-05	70
bin	1.3884e-05	66
bin	1.39552e-05	72
bin	1.40264e-05	90
bin	1.40976e-05	73
bin	1.41688e-05	94
bin	1.424e-05	86
bin	1.43112e-05	105
bin	1.43824e-05	86
bin	1.44536e-05	104
bin	1.45248e-05	89
bin	1.4596e-05	94
bin	1.46672e-05	100
bin	1.47384e-05	85
bin	1.48096e-05	89
bin	1.48808e-05	109
bin	1.4952e-05	80
bin	1.50232e-05	68
bin	1.50944e-05	58
bin	1.51656e-05	67
bin	1.52368e-05	97
bin	1.5308e-05	75
bin	1.53792e-05	74
bin	1.54504e-05	66
bin	1.55216e-05	52
bin	1.55928e-05	74
bin	1.5664e-05	70
bin	1.57352e-05	56
bin	1.58064e-05	74
bin	1.58776e-05	75
bin	1.59488e-05	68
bin	1.602e-05	80
bin	1.60912e-05	58
bin	1.61624e-05	75
bin	1.62336e-05	75
bin	1.63048e-05	61
bin	1.6376e-05	68
bin	1.64472e-05	59
bin	1.65184e-05	68
bin	1.65896e-05	74
bin	1.66608e-05	56
bin	1.6732e-05	67
bin	1.68032e-05	72
bin	1.68744e-05	66
bin	1.69456e-05	65
bin	1.70168e-05	66
bin	1.7088e-05	89
bin	1.71592e-05	68
bin	1.72304e-05	64
bin	1.73016e-05	53
bin	1.73728e-05	78
bin	1.7444e-05	67
bin	1.75152e-05	55
bin	1.75864e-05	63
bin	1.76576e-05	78
bin	1.77288e-05	45
bin	1.78e-05	52
bin	1.78712e-05	65
bin	1.79424e-05	64
bin	1.80136e-05	58
bin	1.80848e-05	63
bin	1.8156e-05	44
bin	1.82272e-05	47
bin	1.82984e-05	47
bin	1.83696e-05	58
bin	1.84408e-05	52
bin	1.8512e-05	65
bin	1.85832e-05	62
bin	1.86544e-05	43
bin	1.87256e-05	37
bin	1.87968e-05	45
bin	1.8868e-05	32
bin	1.89392e-05	54
bin	1.90104e-05	38
bin	1.90816e-05	38
bin	1.91528e-05	35
bin	1.9224e-05	44
bin	1.92952e-05	51
bin	1.93664e-05	60
bin	1.94376e-05	63
bin	1.95088e-05	60
bin	1.958e-05	46
bin	1.96512e-05	59
bin	1.97224e-05	57
bin	1.97936e-05	46
bin	1.98648e-05	48
bin	1.9936e-05	70
bin	2.00072e-05	43
bin	2.00784e-05	33
bin	2.01496e-05	48
bin	2.02208e-05	34
bin	2.0292e-05	37
bin	2.03632e-05	39
bin	2.04344e-05	39
bin	2.05056e-05	39
bin	2.05768e-05	41
bin	2.0648e-05	50
bin	2.07192e-05	30
bin	2.07904e-05	43
bin	2.08616e-05	52
bin	2.09328e-05	45
bin	2.1004e-05	37
bin	2.10752e-05	52
bin	2.11464e-05	41
bin	2.12176e-05	24
bin	2.12888e-05	30
bin	2.136e-05	21
bin	2.14312e-05	33
bin	2.15024e-05	48
bin	2.15736e-05	38
bin	2.16448e-05	38
bin	2.1716e-05	32
bin	2.17872e-05	27
bin	2.18584e-05	25
bin	2.19296e-05	34
bin	2.20008e-05	24
bin	2.2072e-05	26
bin	2.21432e-05	38
bin	2.22144e-05	48
bin	2.22856e-05	32
bin	2.23568e-05	41
bin	2.2428e-05	37
bin	2.24992e-05	35
bin	2.25704e-05	27
bin	2.26416e-05	31
bin	2.27128e-05	24
bin	2.2784e-05	28
bin	2.28552e-05	39
bin	2.29264e-05	41
bin	2.29976e-05	37
bin	2.30688e-05	34
bin	2.314e-05	34
bin	2.32112e-05	39
bin	2.32824e-05	22
bin	2.33536e-05	33
bin	2.34248e-05	28
bin	2.3496e-05	33
bin	2.35672e-05	28
bin	2.36384e-05	20
bin	2.37096e-05	25
bin	2.37808e-05	26
bin	2.3852e-05	45
bin	2.39232e-05	39
bin	2.39944e-05	25
bin	2.40656e-05	28
bin	2.41368e-05	26
bin	2.4208e-05	23
bin	2.42792e-05	29
bin	2.43504e-05	30
bin	2.44216e-05	35
bin	2.44928e-05	37
bin	2.4564e-05	30
bin	2.46352e-05	18
bin	2.47064e-05	31
bin	2.47776e-05	48
bin	2.48488e-05	45
bin	2.492e-05	37
bin	2.49912e-05	33
bin	2.50624e-05	33
bin	2.51336e-05	26
bin	2.52048e-05	39
bin	2.5276e-05	29
bin	2.53472e-05	32
bin	2.54184e-05	27
bin	2.54896e-05	30
bin	2.55608e-05	26
bin	2.5632e-05	30
bin	2.57032e-05	33
bin	2.57744e-05	31
bin	2.58456e-05	25
bin	2.59168e-05	23
bin	2.5988e-05	24
bin	2.60592e-05	24
bin	2.61304e-05	17
bin	2.62016e-05	14
bin	2.62728e-05	17
bin	2.6344e-05	25
bin	2.64152e-05	20
bin	2.64864e-05	30
bin	2.65576e-05	22
bin	2.66288e-05	27
bin	2.67e-05	29
bin	2.67712e-05	28
bin	2.68424e-05	26
bin	2.69136e-05	8
bin	2.69848e-05	24
bin	2.7056e-05	17
bin	2.71272e-05	21
bin	2.71984e-05	26
bin	2.72696e-05	27
bin	2.73408e-05	13
bin	2.7412e-05	17
bin	2.74832e-05	25
bin	2.75544e-05	23
bin	2.76256e-05	38
bin	2.76968e-05	31
bin	2.7768e-05	32
bin	2.78392e-05	29
bin	2.79104e-05	27
bin	2.79816e-05	24
bin	2.80528e-05	24
bin	2.8124e-05	27
bin	2.81952e-05	23
bin	2.82664e-05	14
bin	2.83376e-05	19
bin	2.84088e-05	32
bin	2.848e-05	23
bin	2.85512e-05	28
bin	2.86224e-05	31
bin	2.86936e-05	20
bin	2.87648e-05	22
bin	2.8836e-05	28
bin	2.89072e-05	28
bin	2.89784e-05	34
bin	2.90496e-05	23
bin	2.91208e-05	17
bin	2.9192e-05	31
bin	2.92632e-05	24
bin	2.93344e-05	20
bin	2.94056e-05	21
bin	2.94768e-05	24
bin	2.9548e-05	22
bin	2.96192e-05	33
bin	2.96904e-05	33
bin	2.97616e-05	25
bin	2.98328e-05	20
bin	2.9904e-05	15
bin	2.99752e-05	20
bin	3.00464e-05	32
bin	3.01176e-05	37
bin	3.01888e-05	41
bin	3.026e-05	31
bin	3.03312e-05	33
bin	3.04024e-05	44
bin	3.04736e-05	46
bin	3.05448e-05	44
bin	3.0616e-05	41
bin	3.06872e-05	32
bin	3.07584e-05	35
bin	3.08296e-05	30
bin	3.09008e-05	37
bin	3.0972e-05	40
bin	3.10432e-05	33
bin	3.11144e-05	24
bin	3.11856e-05	22
bin	3.12568e-05	23
bin	3.1328e-05	22
bin	3.13992e-05	17
bin	3.14704e-05	27
bin	3.15416e-05	20
bin	3.16128e-05	19
bin	3.1684e-05	27
bin	3.17552e-05	30
bin	3.18264e-05	25
bin	3.18976e-05	22
bin	3.19688e-05	20
bin	3.204e-05	31
bin	3.21112e-05	28
bin	3.21824e-05	24
bin	3.22536e-05	32
bin	3.23248e-05	34
bin	3.2396e-05	36
bin	3.24672e-05	33
bin	3.25384e-05	19
bin	3.26096e-05	33
bin	3.26808e-05	35
bin	3.2752e-05	28
bin	3.28232e-05	31
bin	3.28944e-05	22
bin	3.29656e-05	25
bin	3.30368e-05	33
bin	3.3108e-05	36
bin	3.31792e-05	37
bin	3.32504e-05	29
bin	3.33216e-05	36
bin	3.33928e-05	40
bin	3.3464e-05	28
bin	3.35352e-05	31
bin	3.36064e-05	23
bin	3.36776e-05	29
bin	3.37488e-05	32
bin	3.382e-05	27
bin	3.38912e-05	24
bin	3.39624e-05	22
bin	3.40336e-05	26
bin	3.41048e-05	20
bin	3.4176e-05	22
bin	3.42472e-05	27
bin	3.43184e-05	22
bin	3.43896e-05	30
bin	3.44608e-05	26
bin	3.4532e-05	36
bin	3.46032e-05	32
bin	3.46744e-05	42
bin	3.47456e-05	23
bin	3.48168e-05	27
bin	3.4888e-05	29
bin	3.49592e-05	34
bin	3.50304e-05	45
bin	3.51016e-05	43
bin	3.51728e-05	35
bin	3.5244e-05	28
bin	3.53152e-05	32
bin	3.53864e-05	30
bin	3.54576e-05	25
bin	3.55288e-05	23
bin	3.56e-05	6166007
statistic Torus3d_bub.timer 	"Life Times"
field count 6291456
field mean 0.016730845125675
field stddev 0.0045400601965793
field sum 105261.375951
field sqrsum 1890.7921714669
field min 1.6918666666e-05
field max 0.023640112666666
bin	-INF	0
bin	0	0
bin	8.544e-07	0
bin	1.7088e-06	0
bin	2.5632e-06	0
bin	3.4176e-06	0
bin	4.272e-06	0
bin	5.1264e-06	0
bin	5.9808e-06	0
bin	6.8352e-06	0
bin	7.6896e-06	0
bin	8.544e-06	0
bin	9.3984e-06	0
bin	1.02528e-05	0
bin	1.11072e-05	0
bin	1.19616e-05	0
bin	1.2816e-05	0
bin	1.36704e-05	0
bin	1.45248e-05	0
bin	1.53792e-05	0
bin	1.62336e-05	1
bin	1.7088e-05	3
bin	1.79424e-05	12
bin	1.87968e-05	9
bin	1.96512e-05	19
bin	2.05056e-05	21
bin	2.136e-05	32
bin	2.22144e-05	51
bin	2.30688e-05	27
bin	2.39232e-05	21
bin	2.47776e-05	64
bin	2.5632e-05	103
bin	2.64864e-05	112
bin	2.73408e-05	213
bin	2.81952e-05	215
bin	2.90496e-05	202
bin	2.9904e-05	232
bin	3.07584e-05	196
bin	3.16128e-05	205
bin	3.24672e-05	897
bin	3.33216e-05	491
bin	3.4176e-05	364
bin	3.50304e-05	628
bin	3.58848e-05	907
bin	3.67392e-05	813
bin	3.75936e-05	986
bin	3.8448e-05	715
bin	3.93024e-05	705
bin	4.01568e-05	818
bin	4.10112e-05	642
bin	4.18656e-05	571
bin	4.272e-05	667
bin	4.35744e-05	680
bin	4.44288e-05	679
bin	4.52832e-05	901
bin	4.61376e-05	786
bin	4.6992e-05	835
bin	4.78464e-05	1142
bin	4.87008e-05	934
bin	4.95552e-05	977
bin	5.04096e-05	1138
bin	5.1264e-05	1034
bin	5.21184e-05	1100
bin	5.29728e-05	1279
bin	5.38272e-05	1136
bin	5.46816e-05	1124
bin	5.5536e-05	1428
bin	5.63904e-05	1249
bin	5.72448e-05	1233
bin	5.80992e-05	1458
bin	5.89536e-05	1323
bin	5.9808e-05	1220
bin	6.06624e-05	1513
bin	6.15168e-05	1323
bin	6.23712e-05	1337
bin	6.32256e-05	1620
bin	6.408e-05	1368
bin	6.49344e-05	1419
bin	6.57888e-05	1486
bin	6.66432e-05	1190
bin	6.74976e-05	1206
bin	6.8352e-05	1198
bin	6.92064e-05	1077
bin	7.00608e-05	1018
bin	7.09152e-05	951
bin	7.17696e-05	940
bin	7.2624e-05	849
bin	7.34784e-05	844
bin	7.43328e-05	771
bin	7.51872e-05	662
bin	7.60416e-05	600
bin	7.6896e-05	599
bin	7.77504e-05	573
bin	7.86048e-05	505
bin	7.94592e-05	461
bin	8.03136e-05	447
bin	8.1168e-05	528
bin	8.20224e-05	452
bin	8.28768e-05	458
bin	8.37312e-05	471
bin	8.45856e-05	448
bin	8.544e-05	421
bin	8.62944e-05	448
bin	8.71488e-05	441
bin	8.80032e-05	397
bin	8.88576e-05	389
bin	8.9712e-05	415
bin	9.05664e-05	431
bin	9.14208e-05	416
bin	9.22752e-05	406
bin	9.31296e-05	419
bin	9.3984e-05	389
bin	9.48384e-05	383
bin	9.56928e-05	416
bin	9.65472e-05	439
bin	9.74016e-05	407
bin	9.8256e-05	427
bin	9.91104e-05	440
bin	9.99648e-05	474
bin	0.0001008192	457
bin	0.0001016736	433
bin	0.000102528	423
bin	0.0001033824	411
bin	0.0001042368	401
bin	0.0001050912	429
bin	0.0001059456	438
bin	0.0001068	442
bin	0.0001076544	410
bin	0.0001085088	433
bin	0.0001093632	459
bin	0.0001102176	460
bin	0.000111072	461
bin	0.0001119264	445
bin	0.0001127808	469
bin	0.0001136352	503
bin	0.0001144896	483
bin	0.000115344	522
bin	0.0001161984	475
bin	0.0001170528	435
bin	0.0001179072	485
bin	0.0001187616	504
bin	0.000119616	498
bin	0.0001204704	519
bin	0.0001213248	495
bin	0.0001221792	484
bin	0.0001230336	453
bin	0.000123888	503
bin	0.0001247424	516
bin	0.0001255968	473
bin	0.0001264512	476
bin	0.0001273056	499
bin	0.00012816	501
bin	0.0001290144	463
bin	0.0001298688	471
bin	0.0001307232	474
bin	0.0001315776	407
bin	0.000132432	395
bin	0.0001332864	376
bin	0.0001341408	387
bin	0.0001349952	366
bin	0.0001358496	344
bin	0.000136704	377
bin	0.0001375584	324
bin	0.0001384128	305
bin	0.0001392672	305
bin	0.0001401216	296
bin	0.000140976	310
bin	0.0001418304	311
bin	0.0001426848	241
bin	0.0001435392	276
bin	0.0001443936	244
bin	0.000145248	238
bin	0.0001461024	255
bin	0.0001469568	252
bin	0.0001478112	190
bin	0.0001486656	246
bin	0.00014952	230
bin	0.0001503744	196
bin	0.0001512288	222
bin	0.0001520832	186
bin	0.0001529376	205
bin	0.000153792	189
bin	0.0001546464	183
bin	0.0001555008	183
bin	0.0001563552	174
bin	0.0001572096	170
bin	0.000158064	178
bin	0.0001589184	186
bin	0.0001597728	169
bin	0.0001606272	201
bin	0.0001614816	161
bin	0.000162336	200
bin	0.0001631904	155
bin	0.0001640448	191
bin	0.0001648992	157
bin	0.0001657536	151
bin	0.000166608	165
bin	0.0001674624	149
bin	0.0001683168	157
bin	0.0001691712	162
bin	0.0001700256	162
bin	0.00017088	182
bin	0.0001717344	204
bin	0.0001725888	151
bin	0.0001734432	177
bin	0.0001742976	176
bin	0.000175152	189
bin	0.0001760064	163
bin	0.0001768608	186
bin	0.0001777152	194
bin	0.0001785696	202
bin	0.000179424	168
bin	0.0001802784	207
bin	0.0001811328	199
bin	0.0001819872	195
bin	0.0001828416	204
bin	0.000183696	196
bin	0.0001845504	187
bin	0.0001854048	158
bin	0.0001862592	187
bin	0.0001871136	209
bin	0.000187968	225
bin	0.0001888224	203
bin	0.0001896768	208
bin	0.0001905312	186
bin	0.0001913856	153
bin	0.00019224	164
bin	0.0001930944	171
bin	0.0001939488	179
bin	0.0001948032	170
bin	0.0001956576	147
bin	0.000196512	159
bin	0.0001973664	171
bin	0.0001982208	147
bin	0.0001990752	132
bin	0.0001999296	115
bin	0.000200784	121
bin	0.0002016384	142
bin	0.0002024928	155
bin	0.0002033472	144
bin	0.0002042016	119
bin	0.000205056	124
bin	0.0002059104	122
bin	0.0002067648	111
bin	0.0002076192	123
bin	0.0002084736	117
bin	0.000209328	126
bin	0.0002101824	119
bin	0.0002110368	124
bin	0.0002118912	110
bin	0.0002127456	96
bin	0.0002136	113
bin	0.0002144544	104
bin	0.0002153088	103
bin	0.0002161632	93
bin	0.0002170176	87
bin	0.000217872	96
bin	0.0002187264	78
bin	0.0002195808	99
bin	0.0002204352	98
bin	0.0002212896	102
bin	0.000222144	123
bin	0.0002229984	115
bin	0.0002238528	113
bin	0.0002247072	96
bin	0.0002255616	90
bin	0.000226416	83
bin	0.0002272704	104
bin	0.0002281248	98
bin	0.0002289792	104
bin	0.0002298336	101
bin	0.000230688	113
bin	0.0002315424	111
bin	0.0002323968	99
bin	0.0002332512	106
bin	0.0002341056	108
bin	0.00023496	109
bin	0.0002358144	88
bin	0.0002366688	87
bin	0.0002375232	110
bin	0.0002383776	97
bin	0.000239232	90
bin	0.0002400864	90
bin	0.0002409408	90
bin	0.0002417952	99
bin	0.0002426496	100
bin	0.000243504	89
bin	0.0002443584	120
bin	0.0002452128	103
bin	0.0002460672	82
bin	0.0002469216	106
bin	0.000247776	112
bin	0.0002486304	102
bin	0.0002494848	109
bin	0.0002503392	106
bin	0.0002511936	101
bin	0.000252048	97
bin	0.0002529024	99
bin	0.0002537568	109
bin	0.0002546112	78
bin	0.0002554656	93
bin	0.00025632	89
bin	0.0002571744	86
bin	0.0002580288	75
bin	0.0002588832	101
bin	0.0002597376	110
bin	0.000260592	84
bin	0.0002614464	77
bin	0.0002623008	98
bin	0.0002631552	84
bin	0.0002640096	78
bin	0.000264864	88
bin	0.0002657184	87
bin	0.0002665728	75
bin	0.0002674272	77
bin	0.0002682816	79
bin	0.000269136	58
bin	0.0002699904	56
bin	0.0002708448	54
bin	0.0002716992	57
bin	0.0002725536	62
bin	0.000273408	61
bin	0.0002742624	73
bin	0.0002751168	69
bin	0.0002759712	44
bin	0.0002768256	63
bin	0.00027768	62
bin	0.0002785344	57
bin	0.0002793888	56
bin	0.0002802432	50
bin	0.0002810976	65
bin	0.000281952	58
bin	0.0002828064	58
bin	0.0002836608	66
bin	0.0002845152	52
bin	0.0002853696	69
bin	0.000286224	66
bin	0.0002870784	59
bin	0.0002879328	58
bin	0.0002887872	70
bin	0.0002896416	76
bin	0.000290496	68
bin	0.0002913504	50
bin	0.0002922048	55
bin	0.0002930592	57
bin	0.0002939136	45
bin	0.000294768	61
bin	0.0002956224	60
bin	0.0002964768	51
bin	0.0002973312	47
bin	0.0002981856	48
bin	0.00029904	52
bin	0.0002998944	62
bin	0.0003007488	50
bin	0.0003016032	40
bin	0.0003024576	49
bin	0.000303312	48
bin	0.0003041664	57
bin	0.0003050208	59
bin	0.0003058752	67
bin	0.0003067296	75
bin	0.000307584	68
bin	0.0003084384	82
bin	0.0003092928	88
bin	0.0003101472	66
bin	0.0003110016	75
bin	0.000311856	94
bin	0.0003127104	67
bin	0.0003135648	48
bin	0.0003144192	68
bin	0.0003152736	55
bin	0.000316128	45
bin	0.0003169824	61
bin	0.0003178368	78
bin	0.0003186912	63
bin	0.0003195456	66
bin	0.0003204	69
bin	0.0003212544	69
bin	0.0003221088	43
bin	0.0003229632	60
bin	0.0003238176	54
bin	0.000324672	53
bin	0.0003255264	46
bin	0.0003263808	53
bin	0.0003272352	53
bin	0.0003280896	40
bin	0.000328944	36
bin	0.0003297984	45
bin	0.0003306528	36
bin	0.0003315072	44
bin	0.0003323616	35
bin	0.000333216	51
bin	0.0003340704	49
bin	0.0003349248	30
bin	0.0003357792	33
bin	0.0003366336	33
bin	0.000337488	25
bin	0.0003383424	34
bin	0.0003391968	40
bin	0.0003400512	31
bin	0.0003409056	33
bin	0.00034176	41
bin	0.0003426144	32
bin	0.0003434688	39
bin	0.0003443232	45
bin	0.0003451776	47
bin	0.000346032	47
bin	0.0003468864	42
bin	0.0003477408	45
bin	0.0003485952	38
bin	0.0003494496	35
bin	0.000350304	45
bin	0.0003511584	40
bin	0.0003520128	29
bin	0.0003528672	49
bin	0.0003537216	42
bin	0.000354576	52
bin	0.0003554304	36
bin	0.0003562848	39
bin	0.0003571392	27
bin	0.0003579936	38
bin	0.000358848	31
bin	0.0003597024	41
bin	0.0003605568	36
bin	0.0003614112	35
bin	0.0003622656	45
bin	0.00036312	37
bin	0.0003639744	39
bin	0.0003648288	30
bin	0.0003656832	48
bin	0.0003665376	47
bin	0.000367392	35
bin	0.0003682464	38
bin	0.0003691008	40
bin	0.0003699552	47
bin	0.0003708096	48
bin	0.000371664	62
bin	0.0003725184	52
bin	0.0003733728	49
bin	0.0003742272	45
bin	0.0003750816	41
bin	0.000375936	40
bin	0.0003767904	42
bin	0.0003776448	41
bin	0.0003784992	40
bin	0.0003793536	43
bin	0.000380208	26
bin	0.0003810624	39
bin	0.0003819168	37
bin	0.0003827712	34
bin	0.0003836256	27
bin	0.00038448	25
bin	0.0003853344	19
bin	0.0003861888	29
bin	0.0003870432	27
bin	0.0003878976	47
bin	0.000388752	25
bin	0.0003896064	22
bin	0.0003904608	28
bin	0.0003913152	29
bin	0.0003921696	19
bin	0.000393024	17
bin	0.0003938784	18
bin	0.0003947328	26
bin	0.0003955872	16
bin	0.0003964416	20
bin	0.000397296	25
bin	0.0003981504	22
bin	0.0003990048	28
bin	0.0003998592	34
bin	0.0004007136	25
bin	0.000401568	24
bin	0.0004024224	21
bin	0.0004032768	23
bin	0.0004041312	29
bin	0.0004049856	29
bin	0.00040584	39
bin	0.0004066944	31
bin	0.0004075488	34
bin	0.0004084032	40
bin	0.0004092576	47
bin	0.000410112	42
bin	0.0004109664	34
bin	0.0004118208	37
bin	0.0004126752	38
bin	0.0004135296	35
bin	0.000414384	39
bin	0.0004152384	48
bin	0.0004160928	32
bin	0.0004169472	23
bin	0.0004178016	45
bin	0.000418656	39
bin	0.0004195104	33
bin	0.0004203648	41
bin	0.0004212192	33
bin	0.0004220736	42
bin	0.000422928	19
bin	0.0004237824	32
bin	0.0004246368	28
bin	0.0004254912	26
bin	0.0004263456	22
bin	0.0004272	6174580
