version 2
run Tornado-41-20120710-04:32:36-25095
attr alg 1
attr buf 8
attr configname Tornado
attr datetime 20120710-04:32:36
attr delta 0.4
attr experiment Tornado
attr ext false
attr inifile altro.ini
attr iterationvars "$buf=8, $ext=false, $ofedge=2, $delta=0.4, $alg=1"
attr iterationvars2 "$buf=8, $ext=false, $ofedge=2, $delta=0.4, $alg=1, $repetition=0"
attr measurement "$buf=8, $ext=false, $ofedge=2, $delta=0.4, $alg=1"
attr network Torus3d_bub
attr ofedge 2
attr processid 25095
attr repetition 0
attr replication #0
attr resultdir altro-results
attr runnumber 41
attr seedset 41

scalar . 	alg 	1
scalar . 	buf 	8
scalar . 	delta 	0.4
scalar . 	ofedge 	2
scalar Torus3d_bub.timer 	#endTime 	0.008564751987645
scalar Torus3d_bub.timer 	#totalHops 	146931794
scalar Torus3d_bub.timer 	#totalPacks 	6291456
scalar Torus3d_bub.timer 	#totalDerouted 	3044674
scalar Torus3d_bub.timer 	#totalOutFlanked 	3044674
scalar Torus3d_bub.timer 	#totalCQRed 	0
scalar Torus3d_bub.timer 	#LB 	0.000786432
scalar Torus3d_bub.timer 	#ratio 	0.091821923289134
statistic Torus3d_bub.timer 	"Hop Times"
field count 6291456
field mean 0.00014042651636825
field stddev 0.00010491623824468
field sum 883.48724896412
field sqrsum 0.19331770564783
field min 4.45146666e-07
field max 0.000388755729595
bin	-INF	0
bin	0	0
bin	7.12e-08	0
bin	1.424e-07	0
bin	2.136e-07	0
bin	2.848e-07	0
bin	3.56e-07	0
bin	4.272e-07	4
bin	4.984e-07	8
bin	5.696e-07	40
bin	6.408e-07	213
bin	7.12e-07	746
bin	7.832e-07	1605
bin	8.544e-07	2700
bin	9.256e-07	4470
bin	9.968e-07	5927
bin	1.068e-06	7799
bin	1.1392e-06	9251
bin	1.2104e-06	11069
bin	1.2816e-06	12740
bin	1.3528e-06	14659
bin	1.424e-06	16652
bin	1.4952e-06	18699
bin	1.5664e-06	20344
bin	1.6376e-06	21867
bin	1.7088e-06	23491
bin	1.78e-06	25362
bin	1.8512e-06	26127
bin	1.9224e-06	27239
bin	1.9936e-06	28094
bin	2.0648e-06	28786
bin	2.136e-06	29216
bin	2.2072e-06	29714
bin	2.2784e-06	29904
bin	2.3496e-06	29964
bin	2.4208e-06	29907
bin	2.492e-06	28877
bin	2.5632e-06	28083
bin	2.6344e-06	27264
bin	2.7056e-06	25999
bin	2.7768e-06	24258
bin	2.848e-06	23171
bin	2.9192e-06	22494
bin	2.9904e-06	22227
bin	3.0616e-06	22481
bin	3.1328e-06	22590
bin	3.204e-06	22574
bin	3.2752e-06	22101
bin	3.3464e-06	21262
bin	3.4176e-06	20350
bin	3.4888e-06	18710
bin	3.56e-06	17018
bin	3.6312e-06	15316
bin	3.7024e-06	13865
bin	3.7736e-06	12754
bin	3.8448e-06	11475
bin	3.916e-06	10772
bin	3.9872e-06	9937
bin	4.0584e-06	9534
bin	4.1296e-06	9162
bin	4.2008e-06	8685
bin	4.272e-06	8583
bin	4.3432e-06	8393
bin	4.4144e-06	8409
bin	4.4856e-06	8370
bin	4.5568e-06	8121
bin	4.628e-06	8171
bin	4.6992e-06	7884
bin	4.7704e-06	7778
bin	4.8416e-06	7525
bin	4.9128e-06	7279
bin	4.984e-06	7330
bin	5.0552e-06	6999
bin	5.1264e-06	6746
bin	5.1976e-06	6234
bin	5.2688e-06	6033
bin	5.34e-06	5792
bin	5.4112e-06	5555
bin	5.4824e-06	5401
bin	5.5536e-06	5262
bin	5.6248e-06	5364
bin	5.696e-06	5347
bin	5.7672e-06	5372
bin	5.8384e-06	5175
bin	5.9096e-06	5204
bin	5.9808e-06	5350
bin	6.052e-06	5263
bin	6.1232e-06	5056
bin	6.1944e-06	5149
bin	6.2656e-06	5012
bin	6.3368e-06	4845
bin	6.408e-06	4712
bin	6.4792e-06	4419
bin	6.5504e-06	4159
bin	6.6216e-06	4043
bin	6.6928e-06	3802
bin	6.764e-06	3892
bin	6.8352e-06	3775
bin	6.9064e-06	3561
bin	6.9776e-06	3575
bin	7.0488e-06	3516
bin	7.12e-06	3463
bin	7.1912e-06	3436
bin	7.2624e-06	3448
bin	7.3336e-06	3228
bin	7.4048e-06	3246
bin	7.476e-06	3054
bin	7.5472e-06	2876
bin	7.6184e-06	2918
bin	7.6896e-06	2942
bin	7.7608e-06	2853
bin	7.832e-06	2641
bin	7.9032e-06	2737
bin	7.9744e-06	2565
bin	8.0456e-06	2681
bin	8.1168e-06	2685
bin	8.188e-06	2583
bin	8.2592e-06	2528
bin	8.3304e-06	2519
bin	8.4016e-06	2517
bin	8.4728e-06	2447
bin	8.544e-06	2454
bin	8.6152e-06	2557
bin	8.6864e-06	2658
bin	8.7576e-06	2460
bin	8.8288e-06	2453
bin	8.9e-06	2521
bin	8.9712e-06	2546
bin	9.0424e-06	2372
bin	9.1136e-06	2564
bin	9.1848e-06	2537
bin	9.256e-06	2553
bin	9.3272e-06	2471
bin	9.3984e-06	2342
bin	9.4696e-06	2371
bin	9.5408e-06	2287
bin	9.612e-06	2365
bin	9.6832e-06	2313
bin	9.7544e-06	2139
bin	9.8256e-06	2120
bin	9.8968e-06	2051
bin	9.968e-06	2077
bin	1.00392e-05	2048
bin	1.01104e-05	2026
bin	1.01816e-05	1955
bin	1.02528e-05	1901
bin	1.0324e-05	1894
bin	1.03952e-05	1864
bin	1.04664e-05	2024
bin	1.05376e-05	2000
bin	1.06088e-05	1937
bin	1.068e-05	1833
bin	1.07512e-05	1927
bin	1.08224e-05	1812
bin	1.08936e-05	1831
bin	1.09648e-05	1754
bin	1.1036e-05	1730
bin	1.11072e-05	1732
bin	1.11784e-05	1611
bin	1.12496e-05	1708
bin	1.13208e-05	1681
bin	1.1392e-05	1645
bin	1.14632e-05	1769
bin	1.15344e-05	1838
bin	1.16056e-05	1714
bin	1.16768e-05	1793
bin	1.1748e-05	1830
bin	1.18192e-05	1839
bin	1.18904e-05	1820
bin	1.19616e-05	1848
bin	1.20328e-05	1679
bin	1.2104e-05	1744
bin	1.21752e-05	1752
bin	1.22464e-05	1646
bin	1.23176e-05	1656
bin	1.23888e-05	1687
bin	1.246e-05	1731
bin	1.25312e-05	1662
bin	1.26024e-05	1602
bin	1.26736e-05	1652
bin	1.27448e-05	1606
bin	1.2816e-05	1551
bin	1.28872e-05	1589
bin	1.29584e-05	1566
bin	1.30296e-05	1559
bin	1.31008e-05	1587
bin	1.3172e-05	1544
bin	1.32432e-05	1568
bin	1.33144e-05	1558
bin	1.33856e-05	1497
bin	1.34568e-05	1497
bin	1.3528e-05	1375
bin	1.35992e-05	1436
bin	1.36704e-05	1486
bin	1.37416e-05	1372
bin	1.38128e-05	1364
bin	1.3884e-05	1418
bin	1.39552e-05	1439
bin	1.40264e-05	1373
bin	1.40976e-05	1404
bin	1.41688e-05	1430
bin	1.424e-05	1477
bin	1.43112e-05	1430
bin	1.43824e-05	1504
bin	1.44536e-05	1437
bin	1.45248e-05	1481
bin	1.4596e-05	1424
bin	1.46672e-05	1494
bin	1.47384e-05	1482
bin	1.48096e-05	1444
bin	1.48808e-05	1448
bin	1.4952e-05	1445
bin	1.50232e-05	1388
bin	1.50944e-05	1412
bin	1.51656e-05	1479
bin	1.52368e-05	1505
bin	1.5308e-05	1412
bin	1.53792e-05	1412
bin	1.54504e-05	1418
bin	1.55216e-05	1387
bin	1.55928e-05	1335
bin	1.5664e-05	1323
bin	1.57352e-05	1347
bin	1.58064e-05	1358
bin	1.58776e-05	1324
bin	1.59488e-05	1352
bin	1.602e-05	1340
bin	1.60912e-05	1295
bin	1.61624e-05	1294
bin	1.62336e-05	1316
bin	1.63048e-05	1338
bin	1.6376e-05	1179
bin	1.64472e-05	1194
bin	1.65184e-05	1237
bin	1.65896e-05	1253
bin	1.66608e-05	1230
bin	1.6732e-05	1279
bin	1.68032e-05	1246
bin	1.68744e-05	1227
bin	1.69456e-05	1273
bin	1.70168e-05	1235
bin	1.7088e-05	1259
bin	1.71592e-05	1265
bin	1.72304e-05	1241
bin	1.73016e-05	1268
bin	1.73728e-05	1177
bin	1.7444e-05	1209
bin	1.75152e-05	1223
bin	1.75864e-05	1223
bin	1.76576e-05	1193
bin	1.77288e-05	1155
bin	1.78e-05	1203
bin	1.78712e-05	1225
bin	1.79424e-05	1168
bin	1.80136e-05	1240
bin	1.80848e-05	1282
bin	1.8156e-05	1233
bin	1.82272e-05	1245
bin	1.82984e-05	1219
bin	1.83696e-05	1254
bin	1.84408e-05	1240
bin	1.8512e-05	1254
bin	1.85832e-05	1230
bin	1.86544e-05	1232
bin	1.87256e-05	1166
bin	1.87968e-05	1250
bin	1.8868e-05	1174
bin	1.89392e-05	1149
bin	1.90104e-05	1048
bin	1.90816e-05	1122
bin	1.91528e-05	1086
bin	1.9224e-05	1087
bin	1.92952e-05	1095
bin	1.93664e-05	1149
bin	1.94376e-05	1162
bin	1.95088e-05	1129
bin	1.958e-05	1186
bin	1.96512e-05	1207
bin	1.97224e-05	1203
bin	1.97936e-05	1180
bin	1.98648e-05	1212
bin	1.9936e-05	1150
bin	2.00072e-05	1141
bin	2.00784e-05	1137
bin	2.01496e-05	1140
bin	2.02208e-05	1172
bin	2.0292e-05	1172
bin	2.03632e-05	1137
bin	2.04344e-05	1146
bin	2.05056e-05	1151
bin	2.05768e-05	1169
bin	2.0648e-05	1092
bin	2.07192e-05	1035
bin	2.07904e-05	1029
bin	2.08616e-05	1108
bin	2.09328e-05	1156
bin	2.1004e-05	1188
bin	2.10752e-05	1115
bin	2.11464e-05	1234
bin	2.12176e-05	1188
bin	2.12888e-05	1164
bin	2.136e-05	1101
bin	2.14312e-05	1146
bin	2.15024e-05	1128
bin	2.15736e-05	1107
bin	2.16448e-05	1084
bin	2.1716e-05	1067
bin	2.17872e-05	1109
bin	2.18584e-05	1129
bin	2.19296e-05	1082
bin	2.20008e-05	1117
bin	2.2072e-05	1091
bin	2.21432e-05	1089
bin	2.22144e-05	1154
bin	2.22856e-05	1129
bin	2.23568e-05	1077
bin	2.2428e-05	1105
bin	2.24992e-05	1065
bin	2.25704e-05	1047
bin	2.26416e-05	1063
bin	2.27128e-05	1124
bin	2.2784e-05	1027
bin	2.28552e-05	1067
bin	2.29264e-05	1057
bin	2.29976e-05	1057
bin	2.30688e-05	1087
bin	2.314e-05	1060
bin	2.32112e-05	1070
bin	2.32824e-05	1044
bin	2.33536e-05	1082
bin	2.34248e-05	998
bin	2.3496e-05	1050
bin	2.35672e-05	1052
bin	2.36384e-05	1064
bin	2.37096e-05	1008
bin	2.37808e-05	1021
bin	2.3852e-05	973
bin	2.39232e-05	1005
bin	2.39944e-05	1120
bin	2.40656e-05	1147
bin	2.41368e-05	1057
bin	2.4208e-05	1052
bin	2.42792e-05	1049
bin	2.43504e-05	1060
bin	2.44216e-05	1084
bin	2.44928e-05	1065
bin	2.4564e-05	1123
bin	2.46352e-05	1083
bin	2.47064e-05	1096
bin	2.47776e-05	999
bin	2.48488e-05	1029
bin	2.492e-05	1019
bin	2.49912e-05	1013
bin	2.50624e-05	1020
bin	2.51336e-05	1010
bin	2.52048e-05	1061
bin	2.5276e-05	1092
bin	2.53472e-05	1083
bin	2.54184e-05	982
bin	2.54896e-05	992
bin	2.55608e-05	933
bin	2.5632e-05	992
bin	2.57032e-05	1067
bin	2.57744e-05	969
bin	2.58456e-05	1023
bin	2.59168e-05	1068
bin	2.5988e-05	993
bin	2.60592e-05	966
bin	2.61304e-05	1042
bin	2.62016e-05	1038
bin	2.62728e-05	1020
bin	2.6344e-05	1064
bin	2.64152e-05	986
bin	2.64864e-05	1054
bin	2.65576e-05	1046
bin	2.66288e-05	1042
bin	2.67e-05	1062
bin	2.67712e-05	1128
bin	2.68424e-05	1074
bin	2.69136e-05	1049
bin	2.69848e-05	1026
bin	2.7056e-05	968
bin	2.71272e-05	946
bin	2.71984e-05	863
bin	2.72696e-05	920
bin	2.73408e-05	940
bin	2.7412e-05	982
bin	2.74832e-05	911
bin	2.75544e-05	1015
bin	2.76256e-05	955
bin	2.76968e-05	983
bin	2.7768e-05	971
bin	2.78392e-05	967
bin	2.79104e-05	944
bin	2.79816e-05	966
bin	2.80528e-05	1089
bin	2.8124e-05	1070
bin	2.81952e-05	1032
bin	2.82664e-05	985
bin	2.83376e-05	957
bin	2.84088e-05	956
bin	2.848e-05	978
bin	2.85512e-05	959
bin	2.86224e-05	1036
bin	2.86936e-05	972
bin	2.87648e-05	995
bin	2.8836e-05	1014
bin	2.89072e-05	1006
bin	2.89784e-05	1011
bin	2.90496e-05	1027
bin	2.91208e-05	967
bin	2.9192e-05	1027
bin	2.92632e-05	989
bin	2.93344e-05	1001
bin	2.94056e-05	1042
bin	2.94768e-05	995
bin	2.9548e-05	976
bin	2.96192e-05	911
bin	2.96904e-05	999
bin	2.97616e-05	981
bin	2.98328e-05	923
bin	2.9904e-05	917
bin	2.99752e-05	916
bin	3.00464e-05	986
bin	3.01176e-05	946
bin	3.01888e-05	946
bin	3.026e-05	978
bin	3.03312e-05	941
bin	3.04024e-05	938
bin	3.04736e-05	961
bin	3.05448e-05	1011
bin	3.0616e-05	982
bin	3.06872e-05	942
bin	3.07584e-05	945
bin	3.08296e-05	945
bin	3.09008e-05	966
bin	3.0972e-05	896
bin	3.10432e-05	985
bin	3.11144e-05	1029
bin	3.11856e-05	930
bin	3.12568e-05	946
bin	3.1328e-05	950
bin	3.13992e-05	947
bin	3.14704e-05	920
bin	3.15416e-05	949
bin	3.16128e-05	950
bin	3.1684e-05	939
bin	3.17552e-05	1003
bin	3.18264e-05	985
bin	3.18976e-05	961
bin	3.19688e-05	953
bin	3.204e-05	920
bin	3.21112e-05	949
bin	3.21824e-05	895
bin	3.22536e-05	925
bin	3.23248e-05	929
bin	3.2396e-05	960
bin	3.24672e-05	993
bin	3.25384e-05	984
bin	3.26096e-05	945
bin	3.26808e-05	959
bin	3.2752e-05	974
bin	3.28232e-05	967
bin	3.28944e-05	978
bin	3.29656e-05	931
bin	3.30368e-05	954
bin	3.3108e-05	942
bin	3.31792e-05	983
bin	3.32504e-05	960
bin	3.33216e-05	1008
bin	3.33928e-05	936
bin	3.3464e-05	938
bin	3.35352e-05	943
bin	3.36064e-05	869
bin	3.36776e-05	891
bin	3.37488e-05	851
bin	3.382e-05	947
bin	3.38912e-05	866
bin	3.39624e-05	889
bin	3.40336e-05	879
bin	3.41048e-05	883
bin	3.4176e-05	834
bin	3.42472e-05	878
bin	3.43184e-05	821
bin	3.43896e-05	847
bin	3.44608e-05	912
bin	3.4532e-05	865
bin	3.46032e-05	856
bin	3.46744e-05	928
bin	3.47456e-05	879
bin	3.48168e-05	939
bin	3.4888e-05	894
bin	3.49592e-05	812
bin	3.50304e-05	947
bin	3.51016e-05	997
bin	3.51728e-05	957
bin	3.5244e-05	904
bin	3.53152e-05	901
bin	3.53864e-05	893
bin	3.54576e-05	875
bin	3.55288e-05	916
bin	3.56e-05	4600942
statistic Torus3d_bub.timer 	"Life Times"
field count 6291456
field mean 0.0032601969070131
field stddev 0.0024071016952622
field sum 20511.385391809
field sqrsum 103.32471729824
field min 9.921666666e-06
field max 0.008250547654368
bin	-INF	0
bin	0	0
bin	8.544e-07	0
bin	1.7088e-06	0
bin	2.5632e-06	0
bin	3.4176e-06	0
bin	4.272e-06	0
bin	5.1264e-06	0
bin	5.9808e-06	0
bin	6.8352e-06	0
bin	7.6896e-06	0
bin	8.544e-06	0
bin	9.3984e-06	1
bin	1.02528e-05	1
bin	1.11072e-05	5
bin	1.19616e-05	12
bin	1.2816e-05	34
bin	1.36704e-05	85
bin	1.45248e-05	190
bin	1.53792e-05	363
bin	1.62336e-05	572
bin	1.7088e-05	702
bin	1.79424e-05	801
bin	1.87968e-05	1064
bin	1.96512e-05	1615
bin	2.05056e-05	1787
bin	2.136e-05	1977
bin	2.22144e-05	2597
bin	2.30688e-05	3079
bin	2.39232e-05	3181
bin	2.47776e-05	3653
bin	2.5632e-05	4118
bin	2.64864e-05	4589
bin	2.73408e-05	4825
bin	2.81952e-05	5414
bin	2.90496e-05	5903
bin	2.9904e-05	6060
bin	3.07584e-05	6674
bin	3.16128e-05	6957
bin	3.24672e-05	7516
bin	3.33216e-05	7566
bin	3.4176e-05	8230
bin	3.50304e-05	8630
bin	3.58848e-05	9139
bin	3.67392e-05	9644
bin	3.75936e-05	10119
bin	3.8448e-05	10604
bin	3.93024e-05	10734
bin	4.01568e-05	11590
bin	4.10112e-05	11730
bin	4.18656e-05	12153
bin	4.272e-05	12444
bin	4.35744e-05	13117
bin	4.44288e-05	13414
bin	4.52832e-05	13678
bin	4.61376e-05	13784
bin	4.6992e-05	14419
bin	4.78464e-05	14439
bin	4.87008e-05	14870
bin	4.95552e-05	15054
bin	5.04096e-05	15190
bin	5.1264e-05	15455
bin	5.21184e-05	15575
bin	5.29728e-05	15745
bin	5.38272e-05	15597
bin	5.46816e-05	16139
bin	5.5536e-05	16104
bin	5.63904e-05	16447
bin	5.72448e-05	16236
bin	5.80992e-05	16343
bin	5.89536e-05	16477
bin	5.9808e-05	16744
bin	6.06624e-05	16735
bin	6.15168e-05	16928
bin	6.23712e-05	16447
bin	6.32256e-05	16405
bin	6.408e-05	16589
bin	6.49344e-05	16470
bin	6.57888e-05	16450
bin	6.66432e-05	16425
bin	6.74976e-05	16084
bin	6.8352e-05	15743
bin	6.92064e-05	15243
bin	7.00608e-05	14588
bin	7.09152e-05	14153
bin	7.17696e-05	13731
bin	7.2624e-05	12929
bin	7.34784e-05	12257
bin	7.43328e-05	11681
bin	7.51872e-05	10788
bin	7.60416e-05	10229
bin	7.6896e-05	9479
bin	7.77504e-05	9009
bin	7.86048e-05	8504
bin	7.94592e-05	7967
bin	8.03136e-05	7569
bin	8.1168e-05	7132
bin	8.20224e-05	6784
bin	8.28768e-05	6503
bin	8.37312e-05	6299
bin	8.45856e-05	5964
bin	8.544e-05	5722
bin	8.62944e-05	5672
bin	8.71488e-05	5481
bin	8.80032e-05	5203
bin	8.88576e-05	5056
bin	8.9712e-05	4950
bin	9.05664e-05	4867
bin	9.14208e-05	4601
bin	9.22752e-05	4606
bin	9.31296e-05	4555
bin	9.3984e-05	4563
bin	9.48384e-05	4406
bin	9.56928e-05	4405
bin	9.65472e-05	4203
bin	9.74016e-05	4235
bin	9.8256e-05	4158
bin	9.91104e-05	4152
bin	9.99648e-05	3989
bin	0.0001008192	3988
bin	0.0001016736	3820
bin	0.000102528	3840
bin	0.0001033824	3822
bin	0.0001042368	3715
bin	0.0001050912	3893
bin	0.0001059456	3861
bin	0.0001068	3808
bin	0.0001076544	3856
bin	0.0001085088	3740
bin	0.0001093632	3734
bin	0.0001102176	3918
bin	0.000111072	3711
bin	0.0001119264	3752
bin	0.0001127808	3733
bin	0.0001136352	3699
bin	0.0001144896	3834
bin	0.000115344	3789
bin	0.0001161984	3818
bin	0.0001170528	3729
bin	0.0001179072	3886
bin	0.0001187616	3731
bin	0.000119616	3901
bin	0.0001204704	3843
bin	0.0001213248	3930
bin	0.0001221792	3935
bin	0.0001230336	3855
bin	0.000123888	3856
bin	0.0001247424	3854
bin	0.0001255968	3808
bin	0.0001264512	3845
bin	0.0001273056	3867
bin	0.00012816	3628
bin	0.0001290144	3513
bin	0.0001298688	3608
bin	0.0001307232	3360
bin	0.0001315776	3367
bin	0.000132432	3183
bin	0.0001332864	3116
bin	0.0001341408	3092
bin	0.0001349952	2939
bin	0.0001358496	2810
bin	0.000136704	2780
bin	0.0001375584	2683
bin	0.0001384128	2499
bin	0.0001392672	2482
bin	0.0001401216	2388
bin	0.000140976	2253
bin	0.0001418304	2275
bin	0.0001426848	2194
bin	0.0001435392	2081
bin	0.0001443936	2052
bin	0.000145248	2038
bin	0.0001461024	1998
bin	0.0001469568	1984
bin	0.0001478112	1976
bin	0.0001486656	1902
bin	0.00014952	1889
bin	0.0001503744	1826
bin	0.0001512288	1762
bin	0.0001520832	1790
bin	0.0001529376	1797
bin	0.000153792	1766
bin	0.0001546464	1736
bin	0.0001555008	1786
bin	0.0001563552	1716
bin	0.0001572096	1645
bin	0.000158064	1603
bin	0.0001589184	1608
bin	0.0001597728	1578
bin	0.0001606272	1667
bin	0.0001614816	1626
bin	0.000162336	1716
bin	0.0001631904	1652
bin	0.0001640448	1584
bin	0.0001648992	1538
bin	0.0001657536	1655
bin	0.000166608	1651
bin	0.0001674624	1549
bin	0.0001683168	1577
bin	0.0001691712	1605
bin	0.0001700256	1681
bin	0.00017088	1610
bin	0.0001717344	1611
bin	0.0001725888	1606
bin	0.0001734432	1655
bin	0.0001742976	1597
bin	0.000175152	1579
bin	0.0001760064	1616
bin	0.0001768608	1628
bin	0.0001777152	1727
bin	0.0001785696	1645
bin	0.000179424	1694
bin	0.0001802784	1670
bin	0.0001811328	1717
bin	0.0001819872	1680
bin	0.0001828416	1670
bin	0.000183696	1618
bin	0.0001845504	1644
bin	0.0001854048	1685
bin	0.0001862592	1624
bin	0.0001871136	1675
bin	0.000187968	1669
bin	0.0001888224	1595
bin	0.0001896768	1664
bin	0.0001905312	1567
bin	0.0001913856	1623
bin	0.00019224	1537
bin	0.0001930944	1492
bin	0.0001939488	1549
bin	0.0001948032	1479
bin	0.0001956576	1453
bin	0.000196512	1423
bin	0.0001973664	1381
bin	0.0001982208	1377
bin	0.0001990752	1329
bin	0.0001999296	1312
bin	0.000200784	1296
bin	0.0002016384	1344
bin	0.0002024928	1299
bin	0.0002033472	1253
bin	0.0002042016	1238
bin	0.000205056	1111
bin	0.0002059104	1227
bin	0.0002067648	1162
bin	0.0002076192	1152
bin	0.0002084736	1125
bin	0.000209328	1163
bin	0.0002101824	1122
bin	0.0002110368	1043
bin	0.0002118912	1097
bin	0.0002127456	1032
bin	0.0002136	1098
bin	0.0002144544	1114
bin	0.0002153088	1077
bin	0.0002161632	1085
bin	0.0002170176	1049
bin	0.000217872	1066
bin	0.0002187264	1088
bin	0.0002195808	1093
bin	0.0002204352	1117
bin	0.0002212896	1039
bin	0.000222144	1082
bin	0.0002229984	1059
bin	0.0002238528	1081
bin	0.0002247072	1035
bin	0.0002255616	1104
bin	0.000226416	1109
bin	0.0002272704	1085
bin	0.0002281248	1062
bin	0.0002289792	1074
bin	0.0002298336	1077
bin	0.000230688	1058
bin	0.0002315424	1011
bin	0.0002323968	1051
bin	0.0002332512	1047
bin	0.0002341056	1045
bin	0.00023496	969
bin	0.0002358144	958
bin	0.0002366688	1017
bin	0.0002375232	1056
bin	0.0002383776	1008
bin	0.000239232	973
bin	0.0002400864	1084
bin	0.0002409408	1066
bin	0.0002417952	1054
bin	0.0002426496	1102
bin	0.000243504	1036
bin	0.0002443584	1044
bin	0.0002452128	1031
bin	0.0002460672	1082
bin	0.0002469216	1020
bin	0.000247776	1126
bin	0.0002486304	1091
bin	0.0002494848	1029
bin	0.0002503392	1123
bin	0.0002511936	1102
bin	0.000252048	1084
bin	0.0002529024	1001
bin	0.0002537568	953
bin	0.0002546112	1003
bin	0.0002554656	972
bin	0.00025632	921
bin	0.0002571744	913
bin	0.0002580288	910
bin	0.0002588832	953
bin	0.0002597376	943
bin	0.000260592	940
bin	0.0002614464	1004
bin	0.0002623008	914
bin	0.0002631552	962
bin	0.0002640096	890
bin	0.000264864	889
bin	0.0002657184	910
bin	0.0002665728	886
bin	0.0002674272	857
bin	0.0002682816	857
bin	0.000269136	885
bin	0.0002699904	873
bin	0.0002708448	879
bin	0.0002716992	854
bin	0.0002725536	866
bin	0.000273408	917
bin	0.0002742624	874
bin	0.0002751168	901
bin	0.0002759712	906
bin	0.0002768256	846
bin	0.00027768	859
bin	0.0002785344	867
bin	0.0002793888	841
bin	0.0002802432	859
bin	0.0002810976	801
bin	0.000281952	813
bin	0.0002828064	826
bin	0.0002836608	753
bin	0.0002845152	760
bin	0.0002853696	794
bin	0.000286224	769
bin	0.0002870784	722
bin	0.0002879328	760
bin	0.0002887872	759
bin	0.0002896416	746
bin	0.000290496	789
bin	0.0002913504	737
bin	0.0002922048	779
bin	0.0002930592	808
bin	0.0002939136	758
bin	0.000294768	780
bin	0.0002956224	840
bin	0.0002964768	786
bin	0.0002973312	790
bin	0.0002981856	796
bin	0.00029904	784
bin	0.0002998944	830
bin	0.0003007488	829
bin	0.0003016032	802
bin	0.0003024576	832
bin	0.000303312	837
bin	0.0003041664	825
bin	0.0003050208	884
bin	0.0003058752	859
bin	0.0003067296	830
bin	0.000307584	867
bin	0.0003084384	826
bin	0.0003092928	818
bin	0.0003101472	831
bin	0.0003110016	813
bin	0.000311856	833
bin	0.0003127104	837
bin	0.0003135648	771
bin	0.0003144192	814
bin	0.0003152736	806
bin	0.000316128	779
bin	0.0003169824	790
bin	0.0003178368	809
bin	0.0003186912	815
bin	0.0003195456	795
bin	0.0003204	793
bin	0.0003212544	780
bin	0.0003221088	773
bin	0.0003229632	769
bin	0.0003238176	752
bin	0.000324672	742
bin	0.0003255264	754
bin	0.0003263808	743
bin	0.0003272352	778
bin	0.0003280896	742
bin	0.000328944	758
bin	0.0003297984	811
bin	0.0003306528	758
bin	0.0003315072	763
bin	0.0003323616	789
bin	0.000333216	716
bin	0.0003340704	735
bin	0.0003349248	760
bin	0.0003357792	747
bin	0.0003366336	711
bin	0.000337488	753
bin	0.0003383424	736
bin	0.0003391968	722
bin	0.0003400512	746
bin	0.0003409056	699
bin	0.00034176	751
bin	0.0003426144	754
bin	0.0003434688	666
bin	0.0003443232	624
bin	0.0003451776	646
bin	0.000346032	684
bin	0.0003468864	682
bin	0.0003477408	737
bin	0.0003485952	672
bin	0.0003494496	678
bin	0.000350304	686
bin	0.0003511584	685
bin	0.0003520128	660
bin	0.0003528672	674
bin	0.0003537216	665
bin	0.000354576	683
bin	0.0003554304	758
bin	0.0003562848	710
bin	0.0003571392	666
bin	0.0003579936	693
bin	0.000358848	645
bin	0.0003597024	654
bin	0.0003605568	665
bin	0.0003614112	636
bin	0.0003622656	686
bin	0.00036312	694
bin	0.0003639744	640
bin	0.0003648288	638
bin	0.0003656832	657
bin	0.0003665376	656
bin	0.000367392	708
bin	0.0003682464	696
bin	0.0003691008	693
bin	0.0003699552	648
bin	0.0003708096	710
bin	0.000371664	638
bin	0.0003725184	668
bin	0.0003733728	659
bin	0.0003742272	666
bin	0.0003750816	707
bin	0.000375936	675
bin	0.0003767904	649
bin	0.0003776448	669
bin	0.0003784992	687
bin	0.0003793536	674
bin	0.000380208	635
bin	0.0003810624	659
bin	0.0003819168	675
bin	0.0003827712	694
bin	0.0003836256	691
bin	0.00038448	705
bin	0.0003853344	693
bin	0.0003861888	695
bin	0.0003870432	776
bin	0.0003878976	720
bin	0.000388752	730
bin	0.0003896064	694
bin	0.0003904608	727
bin	0.0003913152	694
bin	0.0003921696	664
bin	0.000393024	637
bin	0.0003938784	688
bin	0.0003947328	657
bin	0.0003955872	650
bin	0.0003964416	653
bin	0.000397296	665
bin	0.0003981504	636
bin	0.0003990048	601
bin	0.0003998592	613
bin	0.0004007136	615
bin	0.000401568	623
bin	0.0004024224	655
bin	0.0004032768	593
bin	0.0004041312	633
bin	0.0004049856	601
bin	0.00040584	603
bin	0.0004066944	603
bin	0.0004075488	651
bin	0.0004084032	633
bin	0.0004092576	606
bin	0.000410112	619
bin	0.0004109664	610
bin	0.0004118208	609
bin	0.0004126752	618
bin	0.0004135296	652
bin	0.000414384	636
bin	0.0004152384	654
bin	0.0004160928	651
bin	0.0004169472	644
bin	0.0004178016	644
bin	0.000418656	629
bin	0.0004195104	591
bin	0.0004203648	617
bin	0.0004212192	612
bin	0.0004220736	618
bin	0.000422928	632
bin	0.0004237824	628
bin	0.0004246368	652
bin	0.0004254912	667
bin	0.0004263456	627
bin	0.0004272	4846074
