version 2
run Tornado-33-20120710-03:24:39-25076
attr alg 1
attr buf 8
attr configname Tornado
attr datetime 20120710-03:24:39
attr delta 0.6
attr experiment Tornado
attr ext false
attr inifile altro.ini
attr iterationvars "$buf=8, $ext=false, $ofedge=1, $delta=0.6, $alg=1"
attr iterationvars2 "$buf=8, $ext=false, $ofedge=1, $delta=0.6, $alg=1, $repetition=0"
attr measurement "$buf=8, $ext=false, $ofedge=1, $delta=0.6, $alg=1"
attr network Torus3d_bub
attr ofedge 1
attr processid 25076
attr repetition 0
attr replication #0
attr resultdir altro-results
attr runnumber 33
attr seedset 33

scalar . 	alg 	1
scalar . 	buf 	8
scalar . 	delta 	0.6
scalar . 	ofedge 	1
scalar Torus3d_bub.timer 	#endTime 	0.024854335999999
scalar Torus3d_bub.timer 	#totalHops 	156631435
scalar Torus3d_bub.timer 	#totalPacks 	6291456
scalar Torus3d_bub.timer 	#totalDerouted 	4948090
scalar Torus3d_bub.timer 	#totalOutFlanked 	4948090
scalar Torus3d_bub.timer 	#totalCQRed 	0
scalar Torus3d_bub.timer 	#LB 	0.000786432
scalar Torus3d_bub.timer 	#ratio 	0.031641641925177
statistic Torus3d_bub.timer 	"Hop Times"
field count 6291456
field mean 0.00074934740444014
field stddev 0.00020057993640014
field sum 4714.4862237493
field sqrsum 3.7859077885224
field min 8.05650793e-07
field max 0.001181449380952
bin	-INF	0
bin	0	0
bin	7.12e-08	0
bin	1.424e-07	0
bin	2.136e-07	0
bin	2.848e-07	0
bin	3.56e-07	0
bin	4.272e-07	0
bin	4.984e-07	0
bin	5.696e-07	0
bin	6.408e-07	0
bin	7.12e-07	0
bin	7.832e-07	4
bin	8.544e-07	19
bin	9.256e-07	29
bin	9.968e-07	65
bin	1.068e-06	54
bin	1.1392e-06	63
bin	1.2104e-06	183
bin	1.2816e-06	266
bin	1.3528e-06	402
bin	1.424e-06	364
bin	1.4952e-06	584
bin	1.5664e-06	1267
bin	1.6376e-06	1089
bin	1.7088e-06	1760
bin	1.78e-06	1944
bin	1.8512e-06	1777
bin	1.9224e-06	1630
bin	1.9936e-06	1409
bin	2.0648e-06	1411
bin	2.136e-06	1481
bin	2.2072e-06	1500
bin	2.2784e-06	1537
bin	2.3496e-06	1422
bin	2.4208e-06	1335
bin	2.492e-06	1279
bin	2.5632e-06	1255
bin	2.6344e-06	1142
bin	2.7056e-06	1103
bin	2.7768e-06	1105
bin	2.848e-06	999
bin	2.9192e-06	964
bin	2.9904e-06	977
bin	3.0616e-06	965
bin	3.1328e-06	892
bin	3.204e-06	883
bin	3.2752e-06	946
bin	3.3464e-06	921
bin	3.4176e-06	999
bin	3.4888e-06	947
bin	3.56e-06	908
bin	3.6312e-06	732
bin	3.7024e-06	778
bin	3.7736e-06	740
bin	3.8448e-06	699
bin	3.916e-06	719
bin	3.9872e-06	610
bin	4.0584e-06	643
bin	4.1296e-06	561
bin	4.2008e-06	563
bin	4.272e-06	573
bin	4.3432e-06	540
bin	4.4144e-06	523
bin	4.4856e-06	471
bin	4.5568e-06	447
bin	4.628e-06	438
bin	4.6992e-06	462
bin	4.7704e-06	376
bin	4.8416e-06	377
bin	4.9128e-06	427
bin	4.984e-06	433
bin	5.0552e-06	318
bin	5.1264e-06	360
bin	5.1976e-06	327
bin	5.2688e-06	354
bin	5.34e-06	324
bin	5.4112e-06	296
bin	5.4824e-06	262
bin	5.5536e-06	249
bin	5.6248e-06	253
bin	5.696e-06	258
bin	5.7672e-06	201
bin	5.8384e-06	197
bin	5.9096e-06	227
bin	5.9808e-06	186
bin	6.052e-06	188
bin	6.1232e-06	189
bin	6.1944e-06	188
bin	6.2656e-06	185
bin	6.3368e-06	201
bin	6.408e-06	199
bin	6.4792e-06	190
bin	6.5504e-06	203
bin	6.6216e-06	182
bin	6.6928e-06	193
bin	6.764e-06	173
bin	6.8352e-06	148
bin	6.9064e-06	172
bin	6.9776e-06	147
bin	7.0488e-06	144
bin	7.12e-06	139
bin	7.1912e-06	136
bin	7.2624e-06	126
bin	7.3336e-06	148
bin	7.4048e-06	116
bin	7.476e-06	130
bin	7.5472e-06	115
bin	7.6184e-06	100
bin	7.6896e-06	82
bin	7.7608e-06	109
bin	7.832e-06	97
bin	7.9032e-06	112
bin	7.9744e-06	101
bin	8.0456e-06	132
bin	8.1168e-06	129
bin	8.188e-06	113
bin	8.2592e-06	122
bin	8.3304e-06	121
bin	8.4016e-06	97
bin	8.4728e-06	96
bin	8.544e-06	102
bin	8.6152e-06	96
bin	8.6864e-06	83
bin	8.7576e-06	76
bin	8.8288e-06	87
bin	8.9e-06	78
bin	8.9712e-06	81
bin	9.0424e-06	66
bin	9.1136e-06	69
bin	9.1848e-06	69
bin	9.256e-06	59
bin	9.3272e-06	64
bin	9.3984e-06	69
bin	9.4696e-06	80
bin	9.5408e-06	84
bin	9.612e-06	78
bin	9.6832e-06	98
bin	9.7544e-06	57
bin	9.8256e-06	75
bin	9.8968e-06	89
bin	9.968e-06	86
bin	1.00392e-05	86
bin	1.01104e-05	83
bin	1.01816e-05	73
bin	1.02528e-05	93
bin	1.0324e-05	73
bin	1.03952e-05	70
bin	1.04664e-05	66
bin	1.05376e-05	70
bin	1.06088e-05	69
bin	1.068e-05	45
bin	1.07512e-05	63
bin	1.08224e-05	62
bin	1.08936e-05	46
bin	1.09648e-05	59
bin	1.1036e-05	53
bin	1.11072e-05	71
bin	1.11784e-05	31
bin	1.12496e-05	50
bin	1.13208e-05	38
bin	1.1392e-05	60
bin	1.14632e-05	37
bin	1.15344e-05	37
bin	1.16056e-05	61
bin	1.16768e-05	51
bin	1.1748e-05	52
bin	1.18192e-05	52
bin	1.18904e-05	39
bin	1.19616e-05	60
bin	1.20328e-05	69
bin	1.2104e-05	71
bin	1.21752e-05	66
bin	1.22464e-05	45
bin	1.23176e-05	39
bin	1.23888e-05	39
bin	1.246e-05	57
bin	1.25312e-05	47
bin	1.26024e-05	33
bin	1.26736e-05	41
bin	1.27448e-05	49
bin	1.2816e-05	47
bin	1.28872e-05	36
bin	1.29584e-05	42
bin	1.30296e-05	42
bin	1.31008e-05	32
bin	1.3172e-05	36
bin	1.32432e-05	51
bin	1.33144e-05	39
bin	1.33856e-05	34
bin	1.34568e-05	19
bin	1.3528e-05	35
bin	1.35992e-05	40
bin	1.36704e-05	35
bin	1.37416e-05	22
bin	1.38128e-05	32
bin	1.3884e-05	28
bin	1.39552e-05	33
bin	1.40264e-05	43
bin	1.40976e-05	33
bin	1.41688e-05	28
bin	1.424e-05	32
bin	1.43112e-05	32
bin	1.43824e-05	26
bin	1.44536e-05	32
bin	1.45248e-05	23
bin	1.4596e-05	24
bin	1.46672e-05	26
bin	1.47384e-05	41
bin	1.48096e-05	24
bin	1.48808e-05	35
bin	1.4952e-05	27
bin	1.50232e-05	31
bin	1.50944e-05	23
bin	1.51656e-05	31
bin	1.52368e-05	32
bin	1.5308e-05	19
bin	1.53792e-05	23
bin	1.54504e-05	30
bin	1.55216e-05	17
bin	1.55928e-05	31
bin	1.5664e-05	22
bin	1.57352e-05	12
bin	1.58064e-05	20
bin	1.58776e-05	24
bin	1.59488e-05	24
bin	1.602e-05	30
bin	1.60912e-05	22
bin	1.61624e-05	36
bin	1.62336e-05	18
bin	1.63048e-05	24
bin	1.6376e-05	27
bin	1.64472e-05	23
bin	1.65184e-05	23
bin	1.65896e-05	34
bin	1.66608e-05	16
bin	1.6732e-05	16
bin	1.68032e-05	15
bin	1.68744e-05	22
bin	1.69456e-05	23
bin	1.70168e-05	33
bin	1.7088e-05	32
bin	1.71592e-05	24
bin	1.72304e-05	19
bin	1.73016e-05	18
bin	1.73728e-05	24
bin	1.7444e-05	18
bin	1.75152e-05	20
bin	1.75864e-05	12
bin	1.76576e-05	22
bin	1.77288e-05	11
bin	1.78e-05	21
bin	1.78712e-05	14
bin	1.79424e-05	16
bin	1.80136e-05	15
bin	1.80848e-05	19
bin	1.8156e-05	10
bin	1.82272e-05	16
bin	1.82984e-05	20
bin	1.83696e-05	21
bin	1.84408e-05	19
bin	1.8512e-05	11
bin	1.85832e-05	4
bin	1.86544e-05	11
bin	1.87256e-05	11
bin	1.87968e-05	6
bin	1.8868e-05	10
bin	1.89392e-05	15
bin	1.90104e-05	9
bin	1.90816e-05	16
bin	1.91528e-05	12
bin	1.9224e-05	17
bin	1.92952e-05	18
bin	1.93664e-05	15
bin	1.94376e-05	19
bin	1.95088e-05	20
bin	1.958e-05	10
bin	1.96512e-05	29
bin	1.97224e-05	21
bin	1.97936e-05	21
bin	1.98648e-05	10
bin	1.9936e-05	12
bin	2.00072e-05	10
bin	2.00784e-05	14
bin	2.01496e-05	22
bin	2.02208e-05	24
bin	2.0292e-05	13
bin	2.03632e-05	11
bin	2.04344e-05	17
bin	2.05056e-05	15
bin	2.05768e-05	8
bin	2.0648e-05	10
bin	2.07192e-05	20
bin	2.07904e-05	19
bin	2.08616e-05	15
bin	2.09328e-05	16
bin	2.1004e-05	11
bin	2.10752e-05	10
bin	2.11464e-05	13
bin	2.12176e-05	15
bin	2.12888e-05	15
bin	2.136e-05	14
bin	2.14312e-05	9
bin	2.15024e-05	10
bin	2.15736e-05	3
bin	2.16448e-05	7
bin	2.1716e-05	5
bin	2.17872e-05	7
bin	2.18584e-05	10
bin	2.19296e-05	6
bin	2.20008e-05	6
bin	2.2072e-05	10
bin	2.21432e-05	2
bin	2.22144e-05	7
bin	2.22856e-05	6
bin	2.23568e-05	8
bin	2.2428e-05	8
bin	2.24992e-05	6
bin	2.25704e-05	5
bin	2.26416e-05	11
bin	2.27128e-05	12
bin	2.2784e-05	19
bin	2.28552e-05	13
bin	2.29264e-05	7
bin	2.29976e-05	9
bin	2.30688e-05	17
bin	2.314e-05	9
bin	2.32112e-05	7
bin	2.32824e-05	4
bin	2.33536e-05	10
bin	2.34248e-05	6
bin	2.3496e-05	12
bin	2.35672e-05	13
bin	2.36384e-05	7
bin	2.37096e-05	9
bin	2.37808e-05	6
bin	2.3852e-05	11
bin	2.39232e-05	9
bin	2.39944e-05	10
bin	2.40656e-05	11
bin	2.41368e-05	11
bin	2.4208e-05	9
bin	2.42792e-05	2
bin	2.43504e-05	11
bin	2.44216e-05	13
bin	2.44928e-05	8
bin	2.4564e-05	4
bin	2.46352e-05	9
bin	2.47064e-05	11
bin	2.47776e-05	13
bin	2.48488e-05	12
bin	2.492e-05	13
bin	2.49912e-05	8
bin	2.50624e-05	4
bin	2.51336e-05	13
bin	2.52048e-05	6
bin	2.5276e-05	13
bin	2.53472e-05	3
bin	2.54184e-05	9
bin	2.54896e-05	7
bin	2.55608e-05	12
bin	2.5632e-05	14
bin	2.57032e-05	12
bin	2.57744e-05	8
bin	2.58456e-05	6
bin	2.59168e-05	7
bin	2.5988e-05	9
bin	2.60592e-05	9
bin	2.61304e-05	8
bin	2.62016e-05	11
bin	2.62728e-05	8
bin	2.6344e-05	15
bin	2.64152e-05	11
bin	2.64864e-05	12
bin	2.65576e-05	12
bin	2.66288e-05	13
bin	2.67e-05	13
bin	2.67712e-05	9
bin	2.68424e-05	3
bin	2.69136e-05	11
bin	2.69848e-05	19
bin	2.7056e-05	15
bin	2.71272e-05	22
bin	2.71984e-05	14
bin	2.72696e-05	11
bin	2.73408e-05	14
bin	2.7412e-05	23
bin	2.74832e-05	18
bin	2.75544e-05	19
bin	2.76256e-05	13
bin	2.76968e-05	20
bin	2.7768e-05	13
bin	2.78392e-05	10
bin	2.79104e-05	10
bin	2.79816e-05	12
bin	2.80528e-05	13
bin	2.8124e-05	13
bin	2.81952e-05	13
bin	2.82664e-05	10
bin	2.83376e-05	9
bin	2.84088e-05	11
bin	2.848e-05	14
bin	2.85512e-05	22
bin	2.86224e-05	14
bin	2.86936e-05	23
bin	2.87648e-05	12
bin	2.8836e-05	24
bin	2.89072e-05	40
bin	2.89784e-05	31
bin	2.90496e-05	20
bin	2.91208e-05	23
bin	2.9192e-05	20
bin	2.92632e-05	21
bin	2.93344e-05	24
bin	2.94056e-05	22
bin	2.94768e-05	19
bin	2.9548e-05	17
bin	2.96192e-05	22
bin	2.96904e-05	30
bin	2.97616e-05	34
bin	2.98328e-05	20
bin	2.9904e-05	19
bin	2.99752e-05	19
bin	3.00464e-05	28
bin	3.01176e-05	26
bin	3.01888e-05	27
bin	3.026e-05	21
bin	3.03312e-05	25
bin	3.04024e-05	33
bin	3.04736e-05	24
bin	3.05448e-05	21
bin	3.0616e-05	20
bin	3.06872e-05	30
bin	3.07584e-05	26
bin	3.08296e-05	19
bin	3.09008e-05	20
bin	3.0972e-05	12
bin	3.10432e-05	16
bin	3.11144e-05	16
bin	3.11856e-05	30
bin	3.12568e-05	35
bin	3.1328e-05	24
bin	3.13992e-05	31
bin	3.14704e-05	36
bin	3.15416e-05	28
bin	3.16128e-05	39
bin	3.1684e-05	28
bin	3.17552e-05	16
bin	3.18264e-05	23
bin	3.18976e-05	28
bin	3.19688e-05	20
bin	3.204e-05	18
bin	3.21112e-05	30
bin	3.21824e-05	25
bin	3.22536e-05	36
bin	3.23248e-05	45
bin	3.2396e-05	34
bin	3.24672e-05	29
bin	3.25384e-05	33
bin	3.26096e-05	29
bin	3.26808e-05	16
bin	3.2752e-05	25
bin	3.28232e-05	30
bin	3.28944e-05	31
bin	3.29656e-05	29
bin	3.30368e-05	25
bin	3.3108e-05	27
bin	3.31792e-05	21
bin	3.32504e-05	35
bin	3.33216e-05	24
bin	3.33928e-05	18
bin	3.3464e-05	14
bin	3.35352e-05	21
bin	3.36064e-05	27
bin	3.36776e-05	17
bin	3.37488e-05	27
bin	3.382e-05	27
bin	3.38912e-05	20
bin	3.39624e-05	28
bin	3.40336e-05	24
bin	3.41048e-05	27
bin	3.4176e-05	30
bin	3.42472e-05	23
bin	3.43184e-05	38
bin	3.43896e-05	38
bin	3.44608e-05	45
bin	3.4532e-05	42
bin	3.46032e-05	21
bin	3.46744e-05	33
bin	3.47456e-05	30
bin	3.48168e-05	30
bin	3.4888e-05	22
bin	3.49592e-05	23
bin	3.50304e-05	33
bin	3.51016e-05	35
bin	3.51728e-05	30
bin	3.5244e-05	49
bin	3.53152e-05	34
bin	3.53864e-05	32
bin	3.54576e-05	32
bin	3.55288e-05	38
bin	3.56e-05	6223434
statistic Torus3d_bub.timer 	"Life Times"
field count 6291456
field mean 0.018444141462781
field stddev 0.0042713977602717
field sum 116040.50447086
field sqrsum 2255.0540623319
field min 1.6918666666e-05
field max 0.024810436999999
bin	-INF	0
bin	0	0
bin	8.544e-07	0
bin	1.7088e-06	0
bin	2.5632e-06	0
bin	3.4176e-06	0
bin	4.272e-06	0
bin	5.1264e-06	0
bin	5.9808e-06	0
bin	6.8352e-06	0
bin	7.6896e-06	0
bin	8.544e-06	0
bin	9.3984e-06	0
bin	1.02528e-05	0
bin	1.11072e-05	0
bin	1.19616e-05	0
bin	1.2816e-05	0
bin	1.36704e-05	0
bin	1.45248e-05	0
bin	1.53792e-05	0
bin	1.62336e-05	1
bin	1.7088e-05	3
bin	1.79424e-05	12
bin	1.87968e-05	9
bin	1.96512e-05	19
bin	2.05056e-05	21
bin	2.136e-05	31
bin	2.22144e-05	50
bin	2.30688e-05	25
bin	2.39232e-05	20
bin	2.47776e-05	65
bin	2.5632e-05	98
bin	2.64864e-05	115
bin	2.73408e-05	205
bin	2.81952e-05	206
bin	2.90496e-05	197
bin	2.9904e-05	205
bin	3.07584e-05	202
bin	3.16128e-05	221
bin	3.24672e-05	892
bin	3.33216e-05	438
bin	3.4176e-05	377
bin	3.50304e-05	590
bin	3.58848e-05	912
bin	3.67392e-05	791
bin	3.75936e-05	968
bin	3.8448e-05	765
bin	3.93024e-05	634
bin	4.01568e-05	811
bin	4.10112e-05	642
bin	4.18656e-05	580
bin	4.272e-05	626
bin	4.35744e-05	621
bin	4.44288e-05	662
bin	4.52832e-05	784
bin	4.61376e-05	733
bin	4.6992e-05	689
bin	4.78464e-05	717
bin	4.87008e-05	856
bin	4.95552e-05	747
bin	5.04096e-05	681
bin	5.1264e-05	696
bin	5.21184e-05	676
bin	5.29728e-05	661
bin	5.38272e-05	646
bin	5.46816e-05	623
bin	5.5536e-05	641
bin	5.63904e-05	551
bin	5.72448e-05	528
bin	5.80992e-05	582
bin	5.89536e-05	512
bin	5.9808e-05	469
bin	6.06624e-05	527
bin	6.15168e-05	510
bin	6.23712e-05	505
bin	6.32256e-05	503
bin	6.408e-05	574
bin	6.49344e-05	522
bin	6.57888e-05	461
bin	6.66432e-05	490
bin	6.74976e-05	509
bin	6.8352e-05	492
bin	6.92064e-05	506
bin	7.00608e-05	466
bin	7.09152e-05	492
bin	7.17696e-05	464
bin	7.2624e-05	469
bin	7.34784e-05	489
bin	7.43328e-05	459
bin	7.51872e-05	452
bin	7.60416e-05	421
bin	7.6896e-05	439
bin	7.77504e-05	428
bin	7.86048e-05	403
bin	7.94592e-05	407
bin	8.03136e-05	410
bin	8.1168e-05	386
bin	8.20224e-05	429
bin	8.28768e-05	494
bin	8.37312e-05	463
bin	8.45856e-05	409
bin	8.544e-05	458
bin	8.62944e-05	502
bin	8.71488e-05	421
bin	8.80032e-05	413
bin	8.88576e-05	435
bin	8.9712e-05	463
bin	9.05664e-05	393
bin	9.14208e-05	351
bin	9.22752e-05	417
bin	9.31296e-05	346
bin	9.3984e-05	313
bin	9.48384e-05	315
bin	9.56928e-05	340
bin	9.65472e-05	308
bin	9.74016e-05	294
bin	9.8256e-05	332
bin	9.91104e-05	353
bin	9.99648e-05	249
bin	0.0001008192	267
bin	0.0001016736	272
bin	0.000102528	275
bin	0.0001033824	240
bin	0.0001042368	226
bin	0.0001050912	286
bin	0.0001059456	210
bin	0.0001068	237
bin	0.0001076544	248
bin	0.0001085088	238
bin	0.0001093632	231
bin	0.0001102176	253
bin	0.000111072	243
bin	0.0001119264	223
bin	0.0001127808	200
bin	0.0001136352	205
bin	0.0001144896	200
bin	0.000115344	205
bin	0.0001161984	195
bin	0.0001170528	189
bin	0.0001179072	211
bin	0.0001187616	152
bin	0.000119616	162
bin	0.0001204704	168
bin	0.0001213248	160
bin	0.0001221792	160
bin	0.0001230336	159
bin	0.000123888	203
bin	0.0001247424	201
bin	0.0001255968	170
bin	0.0001264512	164
bin	0.0001273056	148
bin	0.00012816	152
bin	0.0001290144	135
bin	0.0001298688	137
bin	0.0001307232	138
bin	0.0001315776	123
bin	0.000132432	140
bin	0.0001332864	147
bin	0.0001341408	129
bin	0.0001349952	102
bin	0.0001358496	108
bin	0.000136704	132
bin	0.0001375584	122
bin	0.0001384128	117
bin	0.0001392672	126
bin	0.0001401216	113
bin	0.000140976	87
bin	0.0001418304	99
bin	0.0001426848	108
bin	0.0001435392	91
bin	0.0001443936	83
bin	0.000145248	90
bin	0.0001461024	96
bin	0.0001469568	87
bin	0.0001478112	101
bin	0.0001486656	93
bin	0.00014952	73
bin	0.0001503744	75
bin	0.0001512288	80
bin	0.0001520832	75
bin	0.0001529376	80
bin	0.000153792	74
bin	0.0001546464	87
bin	0.0001555008	81
bin	0.0001563552	67
bin	0.0001572096	64
bin	0.000158064	94
bin	0.0001589184	86
bin	0.0001597728	69
bin	0.0001606272	79
bin	0.0001614816	64
bin	0.000162336	59
bin	0.0001631904	61
bin	0.0001640448	88
bin	0.0001648992	67
bin	0.0001657536	75
bin	0.000166608	87
bin	0.0001674624	78
bin	0.0001683168	80
bin	0.0001691712	75
bin	0.0001700256	85
bin	0.00017088	92
bin	0.0001717344	81
bin	0.0001725888	83
bin	0.0001734432	90
bin	0.0001742976	91
bin	0.000175152	61
bin	0.0001760064	61
bin	0.0001768608	86
bin	0.0001777152	56
bin	0.0001785696	58
bin	0.000179424	60
bin	0.0001802784	68
bin	0.0001811328	61
bin	0.0001819872	53
bin	0.0001828416	70
bin	0.000183696	58
bin	0.0001845504	70
bin	0.0001854048	55
bin	0.0001862592	77
bin	0.0001871136	59
bin	0.000187968	59
bin	0.0001888224	70
bin	0.0001896768	55
bin	0.0001905312	46
bin	0.0001913856	56
bin	0.00019224	46
bin	0.0001930944	45
bin	0.0001939488	46
bin	0.0001948032	40
bin	0.0001956576	52
bin	0.000196512	39
bin	0.0001973664	27
bin	0.0001982208	36
bin	0.0001990752	40
bin	0.0001999296	41
bin	0.000200784	37
bin	0.0002016384	55
bin	0.0002024928	46
bin	0.0002033472	54
bin	0.0002042016	49
bin	0.000205056	38
bin	0.0002059104	47
bin	0.0002067648	35
bin	0.0002076192	44
bin	0.0002084736	52
bin	0.000209328	49
bin	0.0002101824	43
bin	0.0002110368	41
bin	0.0002118912	52
bin	0.0002127456	36
bin	0.0002136	49
bin	0.0002144544	43
bin	0.0002153088	37
bin	0.0002161632	62
bin	0.0002170176	62
bin	0.000217872	42
bin	0.0002187264	39
bin	0.0002195808	33
bin	0.0002204352	41
bin	0.0002212896	43
bin	0.000222144	36
bin	0.0002229984	35
bin	0.0002238528	28
bin	0.0002247072	26
bin	0.0002255616	23
bin	0.000226416	23
bin	0.0002272704	29
bin	0.0002281248	26
bin	0.0002289792	23
bin	0.0002298336	25
bin	0.000230688	34
bin	0.0002315424	24
bin	0.0002323968	33
bin	0.0002332512	31
bin	0.0002341056	30
bin	0.00023496	22
bin	0.0002358144	28
bin	0.0002366688	41
bin	0.0002375232	25
bin	0.0002383776	24
bin	0.000239232	25
bin	0.0002400864	22
bin	0.0002409408	21
bin	0.0002417952	29
bin	0.0002426496	38
bin	0.000243504	31
bin	0.0002443584	29
bin	0.0002452128	22
bin	0.0002460672	26
bin	0.0002469216	31
bin	0.000247776	26
bin	0.0002486304	35
bin	0.0002494848	41
bin	0.0002503392	30
bin	0.0002511936	41
bin	0.000252048	27
bin	0.0002529024	40
bin	0.0002537568	40
bin	0.0002546112	32
bin	0.0002554656	43
bin	0.00025632	37
bin	0.0002571744	42
bin	0.0002580288	47
bin	0.0002588832	37
bin	0.0002597376	28
bin	0.000260592	30
bin	0.0002614464	49
bin	0.0002623008	46
bin	0.0002631552	29
bin	0.0002640096	28
bin	0.000264864	33
bin	0.0002657184	32
bin	0.0002665728	30
bin	0.0002674272	25
bin	0.0002682816	29
bin	0.000269136	26
bin	0.0002699904	27
bin	0.0002708448	32
bin	0.0002716992	32
bin	0.0002725536	25
bin	0.000273408	19
bin	0.0002742624	25
bin	0.0002751168	27
bin	0.0002759712	26
bin	0.0002768256	27
bin	0.00027768	29
bin	0.0002785344	22
bin	0.0002793888	32
bin	0.0002802432	39
bin	0.0002810976	34
bin	0.000281952	34
bin	0.0002828064	21
bin	0.0002836608	25
bin	0.0002845152	30
bin	0.0002853696	32
bin	0.000286224	31
bin	0.0002870784	21
bin	0.0002879328	27
bin	0.0002887872	26
bin	0.0002896416	36
bin	0.000290496	24
bin	0.0002913504	19
bin	0.0002922048	30
bin	0.0002930592	25
bin	0.0002939136	36
bin	0.000294768	26
bin	0.0002956224	38
bin	0.0002964768	22
bin	0.0002973312	21
bin	0.0002981856	20
bin	0.00029904	25
bin	0.0002998944	27
bin	0.0003007488	28
bin	0.0003016032	39
bin	0.0003024576	42
bin	0.000303312	29
bin	0.0003041664	29
bin	0.0003050208	37
bin	0.0003058752	27
bin	0.0003067296	13
bin	0.000307584	30
bin	0.0003084384	28
bin	0.0003092928	17
bin	0.0003101472	21
bin	0.0003110016	17
bin	0.000311856	29
bin	0.0003127104	21
bin	0.0003135648	30
bin	0.0003144192	19
bin	0.0003152736	22
bin	0.000316128	23
bin	0.0003169824	23
bin	0.0003178368	21
bin	0.0003186912	22
bin	0.0003195456	21
bin	0.0003204	27
bin	0.0003212544	24
bin	0.0003221088	19
bin	0.0003229632	13
bin	0.0003238176	22
bin	0.000324672	22
bin	0.0003255264	12
bin	0.0003263808	29
bin	0.0003272352	21
bin	0.0003280896	22
bin	0.000328944	17
bin	0.0003297984	18
bin	0.0003306528	15
bin	0.0003315072	14
bin	0.0003323616	22
bin	0.000333216	20
bin	0.0003340704	13
bin	0.0003349248	11
bin	0.0003357792	21
bin	0.0003366336	16
bin	0.000337488	13
bin	0.0003383424	11
bin	0.0003391968	17
bin	0.0003400512	21
bin	0.0003409056	13
bin	0.00034176	12
bin	0.0003426144	22
bin	0.0003434688	17
bin	0.0003443232	14
bin	0.0003451776	21
bin	0.000346032	18
bin	0.0003468864	23
bin	0.0003477408	12
bin	0.0003485952	20
bin	0.0003494496	16
bin	0.000350304	9
bin	0.0003511584	10
bin	0.0003520128	19
bin	0.0003528672	19
bin	0.0003537216	10
bin	0.000354576	21
bin	0.0003554304	17
bin	0.0003562848	9
bin	0.0003571392	10
bin	0.0003579936	21
bin	0.000358848	11
bin	0.0003597024	7
bin	0.0003605568	8
bin	0.0003614112	16
bin	0.0003622656	10
bin	0.00036312	13
bin	0.0003639744	14
bin	0.0003648288	16
bin	0.0003656832	13
bin	0.0003665376	13
bin	0.000367392	6
bin	0.0003682464	15
bin	0.0003691008	16
bin	0.0003699552	5
bin	0.0003708096	18
bin	0.000371664	12
bin	0.0003725184	7
bin	0.0003733728	9
bin	0.0003742272	6
bin	0.0003750816	9
bin	0.000375936	7
bin	0.0003767904	13
bin	0.0003776448	4
bin	0.0003784992	6
bin	0.0003793536	7
bin	0.000380208	15
bin	0.0003810624	6
bin	0.0003819168	11
bin	0.0003827712	12
bin	0.0003836256	9
bin	0.00038448	5
bin	0.0003853344	7
bin	0.0003861888	15
bin	0.0003870432	10
bin	0.0003878976	8
bin	0.000388752	12
bin	0.0003896064	8
bin	0.0003904608	7
bin	0.0003913152	11
bin	0.0003921696	6
bin	0.000393024	8
bin	0.0003938784	4
bin	0.0003947328	2
bin	0.0003955872	5
bin	0.0003964416	6
bin	0.000397296	10
bin	0.0003981504	5
bin	0.0003990048	3
bin	0.0003998592	9
bin	0.0004007136	11
bin	0.000401568	15
bin	0.0004024224	17
bin	0.0004032768	9
bin	0.0004041312	13
bin	0.0004049856	11
bin	0.00040584	8
bin	0.0004066944	20
bin	0.0004075488	7
bin	0.0004084032	10
bin	0.0004092576	8
bin	0.000410112	11
bin	0.0004109664	11
bin	0.0004118208	6
bin	0.0004126752	12
bin	0.0004135296	11
bin	0.000414384	15
bin	0.0004152384	15
bin	0.0004160928	14
bin	0.0004169472	8
bin	0.0004178016	1
bin	0.000418656	4
bin	0.0004195104	4
bin	0.0004203648	4
bin	0.0004212192	4
bin	0.0004220736	8
bin	0.000422928	4
bin	0.0004237824	13
bin	0.0004246368	13
bin	0.0004254912	20
bin	0.0004263456	11
bin	0.0004272	6227822
