version 2
run Tornado-45-20120710-05:22:00-25109
attr alg 1
attr buf 8
attr configname Tornado
attr datetime 20120710-05:22:00
attr delta 0.6
attr experiment Tornado
attr ext false
attr inifile altro.ini
attr iterationvars "$buf=8, $ext=false, $ofedge=2, $delta=0.6, $alg=1"
attr iterationvars2 "$buf=8, $ext=false, $ofedge=2, $delta=0.6, $alg=1, $repetition=0"
attr measurement "$buf=8, $ext=false, $ofedge=2, $delta=0.6, $alg=1"
attr network Torus3d_bub
attr ofedge 2
attr processid 25109
attr repetition 0
attr replication #0
attr resultdir altro-results
attr runnumber 45
attr seedset 45

scalar . 	alg 	1
scalar . 	buf 	8
scalar . 	delta 	0.6
scalar . 	ofedge 	2
scalar Torus3d_bub.timer 	#endTime 	0.010311360318002
scalar Torus3d_bub.timer 	#totalHops 	147089924
scalar Torus3d_bub.timer 	#totalPacks 	6291456
scalar Torus3d_bub.timer 	#totalDerouted 	3019066
scalar Torus3d_bub.timer 	#totalOutFlanked 	3019066
scalar Torus3d_bub.timer 	#totalCQRed 	0
scalar Torus3d_bub.timer 	#LB 	0.000786432
scalar Torus3d_bub.timer 	#ratio 	0.076268501511582
statistic Torus3d_bub.timer 	"Hop Times"
field count 6291456
field mean 0.00021953105572631
field stddev 0.00012331340167665
field sum 1381.1699777356
field sqrsum 0.39887879512155
field min 4.46269841e-07
field max 0.000486317967523
bin	-INF	0
bin	0	0
bin	7.12e-08	0
bin	1.424e-07	0
bin	2.136e-07	0
bin	2.848e-07	0
bin	3.56e-07	0
bin	4.272e-07	3
bin	4.984e-07	4
bin	5.696e-07	7
bin	6.408e-07	14
bin	7.12e-07	149
bin	7.832e-07	514
bin	8.544e-07	1027
bin	9.256e-07	2012
bin	9.968e-07	2626
bin	1.068e-06	3388
bin	1.1392e-06	3674
bin	1.2104e-06	4559
bin	1.2816e-06	5290
bin	1.3528e-06	6052
bin	1.424e-06	6981
bin	1.4952e-06	7696
bin	1.5664e-06	8064
bin	1.6376e-06	8405
bin	1.7088e-06	8890
bin	1.78e-06	8935
bin	1.8512e-06	8917
bin	1.9224e-06	8039
bin	1.9936e-06	7846
bin	2.0648e-06	7861
bin	2.136e-06	7733
bin	2.2072e-06	7646
bin	2.2784e-06	7766
bin	2.3496e-06	7609
bin	2.4208e-06	7551
bin	2.492e-06	7151
bin	2.5632e-06	6960
bin	2.6344e-06	6763
bin	2.7056e-06	6446
bin	2.7768e-06	5973
bin	2.848e-06	5711
bin	2.9192e-06	5317
bin	2.9904e-06	5118
bin	3.0616e-06	4898
bin	3.1328e-06	4697
bin	3.204e-06	4520
bin	3.2752e-06	4284
bin	3.3464e-06	4123
bin	3.4176e-06	4185
bin	3.4888e-06	3965
bin	3.56e-06	3772
bin	3.6312e-06	3790
bin	3.7024e-06	3787
bin	3.7736e-06	3613
bin	3.8448e-06	3467
bin	3.916e-06	3666
bin	3.9872e-06	3570
bin	4.0584e-06	3545
bin	4.1296e-06	3493
bin	4.2008e-06	3382
bin	4.272e-06	3320
bin	4.3432e-06	3220
bin	4.4144e-06	3190
bin	4.4856e-06	3109
bin	4.5568e-06	2925
bin	4.628e-06	2971
bin	4.6992e-06	2839
bin	4.7704e-06	2720
bin	4.8416e-06	2685
bin	4.9128e-06	2648
bin	4.984e-06	2584
bin	5.0552e-06	2494
bin	5.1264e-06	2523
bin	5.1976e-06	2448
bin	5.2688e-06	2409
bin	5.34e-06	2176
bin	5.4112e-06	2248
bin	5.4824e-06	2202
bin	5.5536e-06	2198
bin	5.6248e-06	2168
bin	5.696e-06	2201
bin	5.7672e-06	2168
bin	5.8384e-06	2046
bin	5.9096e-06	2026
bin	5.9808e-06	1923
bin	6.052e-06	1996
bin	6.1232e-06	1943
bin	6.1944e-06	1878
bin	6.2656e-06	1829
bin	6.3368e-06	1861
bin	6.408e-06	1937
bin	6.4792e-06	1819
bin	6.5504e-06	1892
bin	6.6216e-06	1874
bin	6.6928e-06	1736
bin	6.764e-06	1794
bin	6.8352e-06	1773
bin	6.9064e-06	1764
bin	6.9776e-06	1837
bin	7.0488e-06	1687
bin	7.12e-06	1662
bin	7.1912e-06	1660
bin	7.2624e-06	1627
bin	7.3336e-06	1609
bin	7.4048e-06	1524
bin	7.476e-06	1597
bin	7.5472e-06	1536
bin	7.6184e-06	1552
bin	7.6896e-06	1517
bin	7.7608e-06	1526
bin	7.832e-06	1541
bin	7.9032e-06	1636
bin	7.9744e-06	1663
bin	8.0456e-06	1520
bin	8.1168e-06	1480
bin	8.188e-06	1538
bin	8.2592e-06	1556
bin	8.3304e-06	1489
bin	8.4016e-06	1457
bin	8.4728e-06	1483
bin	8.544e-06	1440
bin	8.6152e-06	1490
bin	8.6864e-06	1402
bin	8.7576e-06	1425
bin	8.8288e-06	1357
bin	8.9e-06	1340
bin	8.9712e-06	1339
bin	9.0424e-06	1455
bin	9.1136e-06	1415
bin	9.1848e-06	1425
bin	9.256e-06	1363
bin	9.3272e-06	1316
bin	9.3984e-06	1346
bin	9.4696e-06	1369
bin	9.5408e-06	1409
bin	9.612e-06	1372
bin	9.6832e-06	1345
bin	9.7544e-06	1265
bin	9.8256e-06	1374
bin	9.8968e-06	1325
bin	9.968e-06	1302
bin	1.00392e-05	1298
bin	1.01104e-05	1285
bin	1.01816e-05	1278
bin	1.02528e-05	1294
bin	1.0324e-05	1301
bin	1.03952e-05	1309
bin	1.04664e-05	1222
bin	1.05376e-05	1234
bin	1.06088e-05	1294
bin	1.068e-05	1200
bin	1.07512e-05	1216
bin	1.08224e-05	1192
bin	1.08936e-05	1124
bin	1.09648e-05	1166
bin	1.1036e-05	1129
bin	1.11072e-05	1150
bin	1.11784e-05	1162
bin	1.12496e-05	1142
bin	1.13208e-05	1300
bin	1.1392e-05	1150
bin	1.14632e-05	1187
bin	1.15344e-05	1184
bin	1.16056e-05	1198
bin	1.16768e-05	1127
bin	1.1748e-05	1180
bin	1.18192e-05	1213
bin	1.18904e-05	1110
bin	1.19616e-05	1146
bin	1.20328e-05	1165
bin	1.2104e-05	1219
bin	1.21752e-05	1204
bin	1.22464e-05	1127
bin	1.23176e-05	1157
bin	1.23888e-05	1123
bin	1.246e-05	1095
bin	1.25312e-05	1080
bin	1.26024e-05	1088
bin	1.26736e-05	1058
bin	1.27448e-05	974
bin	1.2816e-05	1107
bin	1.28872e-05	1038
bin	1.29584e-05	1074
bin	1.30296e-05	1108
bin	1.31008e-05	1089
bin	1.3172e-05	1075
bin	1.32432e-05	1051
bin	1.33144e-05	990
bin	1.33856e-05	1054
bin	1.34568e-05	1049
bin	1.3528e-05	992
bin	1.35992e-05	981
bin	1.36704e-05	1004
bin	1.37416e-05	1034
bin	1.38128e-05	1030
bin	1.3884e-05	1005
bin	1.39552e-05	934
bin	1.40264e-05	886
bin	1.40976e-05	957
bin	1.41688e-05	950
bin	1.424e-05	966
bin	1.43112e-05	968
bin	1.43824e-05	980
bin	1.44536e-05	1082
bin	1.45248e-05	976
bin	1.4596e-05	1022
bin	1.46672e-05	997
bin	1.47384e-05	952
bin	1.48096e-05	966
bin	1.48808e-05	962
bin	1.4952e-05	970
bin	1.50232e-05	1021
bin	1.50944e-05	955
bin	1.51656e-05	922
bin	1.52368e-05	882
bin	1.5308e-05	844
bin	1.53792e-05	910
bin	1.54504e-05	885
bin	1.55216e-05	957
bin	1.55928e-05	880
bin	1.5664e-05	907
bin	1.57352e-05	897
bin	1.58064e-05	950
bin	1.58776e-05	883
bin	1.59488e-05	894
bin	1.602e-05	856
bin	1.60912e-05	906
bin	1.61624e-05	877
bin	1.62336e-05	936
bin	1.63048e-05	921
bin	1.6376e-05	920
bin	1.64472e-05	898
bin	1.65184e-05	907
bin	1.65896e-05	926
bin	1.66608e-05	867
bin	1.6732e-05	893
bin	1.68032e-05	881
bin	1.68744e-05	894
bin	1.69456e-05	898
bin	1.70168e-05	930
bin	1.7088e-05	848
bin	1.71592e-05	846
bin	1.72304e-05	851
bin	1.73016e-05	897
bin	1.73728e-05	865
bin	1.7444e-05	866
bin	1.75152e-05	870
bin	1.75864e-05	866
bin	1.76576e-05	911
bin	1.77288e-05	863
bin	1.78e-05	908
bin	1.78712e-05	887
bin	1.79424e-05	916
bin	1.80136e-05	852
bin	1.80848e-05	846
bin	1.8156e-05	936
bin	1.82272e-05	812
bin	1.82984e-05	862
bin	1.83696e-05	777
bin	1.84408e-05	877
bin	1.8512e-05	855
bin	1.85832e-05	810
bin	1.86544e-05	833
bin	1.87256e-05	808
bin	1.87968e-05	787
bin	1.8868e-05	874
bin	1.89392e-05	895
bin	1.90104e-05	820
bin	1.90816e-05	853
bin	1.91528e-05	857
bin	1.9224e-05	877
bin	1.92952e-05	837
bin	1.93664e-05	854
bin	1.94376e-05	828
bin	1.95088e-05	839
bin	1.958e-05	852
bin	1.96512e-05	896
bin	1.97224e-05	884
bin	1.97936e-05	881
bin	1.98648e-05	901
bin	1.9936e-05	861
bin	2.00072e-05	843
bin	2.00784e-05	848
bin	2.01496e-05	818
bin	2.02208e-05	833
bin	2.0292e-05	845
bin	2.03632e-05	840
bin	2.04344e-05	823
bin	2.05056e-05	886
bin	2.05768e-05	864
bin	2.0648e-05	878
bin	2.07192e-05	895
bin	2.07904e-05	854
bin	2.08616e-05	835
bin	2.09328e-05	752
bin	2.1004e-05	808
bin	2.10752e-05	784
bin	2.11464e-05	801
bin	2.12176e-05	844
bin	2.12888e-05	807
bin	2.136e-05	831
bin	2.14312e-05	806
bin	2.15024e-05	791
bin	2.15736e-05	833
bin	2.16448e-05	773
bin	2.1716e-05	821
bin	2.17872e-05	812
bin	2.18584e-05	881
bin	2.19296e-05	916
bin	2.20008e-05	871
bin	2.2072e-05	873
bin	2.21432e-05	823
bin	2.22144e-05	814
bin	2.22856e-05	825
bin	2.23568e-05	860
bin	2.2428e-05	874
bin	2.24992e-05	819
bin	2.25704e-05	793
bin	2.26416e-05	846
bin	2.27128e-05	819
bin	2.2784e-05	780
bin	2.28552e-05	782
bin	2.29264e-05	872
bin	2.29976e-05	820
bin	2.30688e-05	782
bin	2.314e-05	833
bin	2.32112e-05	846
bin	2.32824e-05	856
bin	2.33536e-05	882
bin	2.34248e-05	885
bin	2.3496e-05	874
bin	2.35672e-05	845
bin	2.36384e-05	849
bin	2.37096e-05	856
bin	2.37808e-05	794
bin	2.3852e-05	778
bin	2.39232e-05	790
bin	2.39944e-05	847
bin	2.40656e-05	825
bin	2.41368e-05	818
bin	2.4208e-05	804
bin	2.42792e-05	881
bin	2.43504e-05	815
bin	2.44216e-05	825
bin	2.44928e-05	788
bin	2.4564e-05	836
bin	2.46352e-05	785
bin	2.47064e-05	852
bin	2.47776e-05	762
bin	2.48488e-05	786
bin	2.492e-05	751
bin	2.49912e-05	754
bin	2.50624e-05	747
bin	2.51336e-05	777
bin	2.52048e-05	799
bin	2.5276e-05	781
bin	2.53472e-05	756
bin	2.54184e-05	816
bin	2.54896e-05	734
bin	2.55608e-05	702
bin	2.5632e-05	853
bin	2.57032e-05	830
bin	2.57744e-05	801
bin	2.58456e-05	799
bin	2.59168e-05	847
bin	2.5988e-05	753
bin	2.60592e-05	791
bin	2.61304e-05	744
bin	2.62016e-05	715
bin	2.62728e-05	752
bin	2.6344e-05	826
bin	2.64152e-05	809
bin	2.64864e-05	759
bin	2.65576e-05	738
bin	2.66288e-05	757
bin	2.67e-05	790
bin	2.67712e-05	796
bin	2.68424e-05	818
bin	2.69136e-05	851
bin	2.69848e-05	813
bin	2.7056e-05	848
bin	2.71272e-05	853
bin	2.71984e-05	831
bin	2.72696e-05	821
bin	2.73408e-05	807
bin	2.7412e-05	746
bin	2.74832e-05	756
bin	2.75544e-05	750
bin	2.76256e-05	740
bin	2.76968e-05	798
bin	2.7768e-05	780
bin	2.78392e-05	806
bin	2.79104e-05	728
bin	2.79816e-05	750
bin	2.80528e-05	769
bin	2.8124e-05	797
bin	2.81952e-05	815
bin	2.82664e-05	784
bin	2.83376e-05	826
bin	2.84088e-05	764
bin	2.848e-05	715
bin	2.85512e-05	733
bin	2.86224e-05	761
bin	2.86936e-05	729
bin	2.87648e-05	746
bin	2.8836e-05	754
bin	2.89072e-05	741
bin	2.89784e-05	706
bin	2.90496e-05	707
bin	2.91208e-05	711
bin	2.9192e-05	735
bin	2.92632e-05	719
bin	2.93344e-05	727
bin	2.94056e-05	713
bin	2.94768e-05	723
bin	2.9548e-05	739
bin	2.96192e-05	742
bin	2.96904e-05	713
bin	2.97616e-05	707
bin	2.98328e-05	698
bin	2.9904e-05	699
bin	2.99752e-05	747
bin	3.00464e-05	643
bin	3.01176e-05	709
bin	3.01888e-05	726
bin	3.026e-05	682
bin	3.03312e-05	691
bin	3.04024e-05	666
bin	3.04736e-05	675
bin	3.05448e-05	763
bin	3.0616e-05	635
bin	3.06872e-05	661
bin	3.07584e-05	658
bin	3.08296e-05	695
bin	3.09008e-05	683
bin	3.0972e-05	657
bin	3.10432e-05	686
bin	3.11144e-05	676
bin	3.11856e-05	738
bin	3.12568e-05	690
bin	3.1328e-05	656
bin	3.13992e-05	686
bin	3.14704e-05	637
bin	3.15416e-05	703
bin	3.16128e-05	658
bin	3.1684e-05	686
bin	3.17552e-05	659
bin	3.18264e-05	672
bin	3.18976e-05	701
bin	3.19688e-05	683
bin	3.204e-05	713
bin	3.21112e-05	686
bin	3.21824e-05	703
bin	3.22536e-05	691
bin	3.23248e-05	756
bin	3.2396e-05	750
bin	3.24672e-05	775
bin	3.25384e-05	720
bin	3.26096e-05	649
bin	3.26808e-05	696
bin	3.2752e-05	690
bin	3.28232e-05	646
bin	3.28944e-05	660
bin	3.29656e-05	646
bin	3.30368e-05	658
bin	3.3108e-05	682
bin	3.31792e-05	685
bin	3.32504e-05	708
bin	3.33216e-05	657
bin	3.33928e-05	650
bin	3.3464e-05	732
bin	3.35352e-05	754
bin	3.36064e-05	729
bin	3.36776e-05	724
bin	3.37488e-05	697
bin	3.382e-05	669
bin	3.38912e-05	724
bin	3.39624e-05	655
bin	3.40336e-05	655
bin	3.41048e-05	721
bin	3.4176e-05	671
bin	3.42472e-05	689
bin	3.43184e-05	661
bin	3.43896e-05	724
bin	3.44608e-05	705
bin	3.4532e-05	726
bin	3.46032e-05	713
bin	3.46744e-05	676
bin	3.47456e-05	654
bin	3.48168e-05	720
bin	3.4888e-05	684
bin	3.49592e-05	663
bin	3.50304e-05	696
bin	3.51016e-05	671
bin	3.51728e-05	723
bin	3.5244e-05	649
bin	3.53152e-05	652
bin	3.53864e-05	655
bin	3.54576e-05	770
bin	3.55288e-05	751
bin	3.56e-05	5569720
statistic Torus3d_bub.timer 	"Life Times"
field count 6291456
field mean 0.0050994051620692
field stddev 0.0028130154706409
field sum 32082.683203331
field sqrsum 213.38723631607
field min 9.371666666e-06
field max 0.010212677318002
bin	-INF	0
bin	0	0
bin	8.544e-07	0
bin	1.7088e-06	0
bin	2.5632e-06	0
bin	3.4176e-06	0
bin	4.272e-06	0
bin	5.1264e-06	0
bin	5.9808e-06	0
bin	6.8352e-06	0
bin	7.6896e-06	0
bin	8.544e-06	1
bin	9.3984e-06	1
bin	1.02528e-05	2
bin	1.11072e-05	3
bin	1.19616e-05	3
bin	1.2816e-05	5
bin	1.36704e-05	8
bin	1.45248e-05	20
bin	1.53792e-05	68
bin	1.62336e-05	177
bin	1.7088e-05	174
bin	1.79424e-05	166
bin	1.87968e-05	300
bin	1.96512e-05	654
bin	2.05056e-05	677
bin	2.136e-05	712
bin	2.22144e-05	1037
bin	2.30688e-05	1326
bin	2.39232e-05	1239
bin	2.47776e-05	1530
bin	2.5632e-05	1743
bin	2.64864e-05	2026
bin	2.73408e-05	2054
bin	2.81952e-05	2298
bin	2.90496e-05	2585
bin	2.9904e-05	2527
bin	3.07584e-05	2861
bin	3.16128e-05	2956
bin	3.24672e-05	3264
bin	3.33216e-05	3224
bin	3.4176e-05	3466
bin	3.50304e-05	3665
bin	3.58848e-05	3845
bin	3.67392e-05	3890
bin	3.75936e-05	4258
bin	3.8448e-05	4398
bin	3.93024e-05	4362
bin	4.01568e-05	4642
bin	4.10112e-05	4582
bin	4.18656e-05	4802
bin	4.272e-05	4884
bin	4.35744e-05	5175
bin	4.44288e-05	5093
bin	4.52832e-05	5075
bin	4.61376e-05	5239
bin	4.6992e-05	4993
bin	4.78464e-05	4951
bin	4.87008e-05	4761
bin	4.95552e-05	4714
bin	5.04096e-05	4637
bin	5.1264e-05	4665
bin	5.21184e-05	4437
bin	5.29728e-05	4406
bin	5.38272e-05	4284
bin	5.46816e-05	4154
bin	5.5536e-05	4006
bin	5.63904e-05	3915
bin	5.72448e-05	3881
bin	5.80992e-05	3445
bin	5.89536e-05	3494
bin	5.9808e-05	3395
bin	6.06624e-05	3194
bin	6.15168e-05	3060
bin	6.23712e-05	3063
bin	6.32256e-05	2973
bin	6.408e-05	2881
bin	6.49344e-05	2797
bin	6.57888e-05	2691
bin	6.66432e-05	2674
bin	6.74976e-05	2582
bin	6.8352e-05	2564
bin	6.92064e-05	2480
bin	7.00608e-05	2394
bin	7.09152e-05	2369
bin	7.17696e-05	2376
bin	7.2624e-05	2322
bin	7.34784e-05	2296
bin	7.43328e-05	2173
bin	7.51872e-05	2206
bin	7.60416e-05	2186
bin	7.6896e-05	2207
bin	7.77504e-05	2178
bin	7.86048e-05	2192
bin	7.94592e-05	2132
bin	8.03136e-05	2077
bin	8.1168e-05	2077
bin	8.20224e-05	2104
bin	8.28768e-05	2164
bin	8.37312e-05	2110
bin	8.45856e-05	2050
bin	8.544e-05	2174
bin	8.62944e-05	2049
bin	8.71488e-05	2086
bin	8.80032e-05	1975
bin	8.88576e-05	1986
bin	8.9712e-05	1927
bin	9.05664e-05	1996
bin	9.14208e-05	1993
bin	9.22752e-05	1862
bin	9.31296e-05	1854
bin	9.3984e-05	1821
bin	9.48384e-05	1751
bin	9.56928e-05	1678
bin	9.65472e-05	1706
bin	9.74016e-05	1665
bin	9.8256e-05	1718
bin	9.91104e-05	1601
bin	9.99648e-05	1551
bin	0.0001008192	1511
bin	0.0001016736	1584
bin	0.000102528	1579
bin	0.0001033824	1488
bin	0.0001042368	1492
bin	0.0001050912	1519
bin	0.0001059456	1425
bin	0.0001068	1472
bin	0.0001076544	1450
bin	0.0001085088	1439
bin	0.0001093632	1392
bin	0.0001102176	1390
bin	0.000111072	1389
bin	0.0001119264	1308
bin	0.0001127808	1254
bin	0.0001136352	1332
bin	0.0001144896	1279
bin	0.000115344	1274
bin	0.0001161984	1270
bin	0.0001170528	1219
bin	0.0001179072	1182
bin	0.0001187616	1209
bin	0.000119616	1237
bin	0.0001204704	1292
bin	0.0001213248	1328
bin	0.0001221792	1255
bin	0.0001230336	1246
bin	0.000123888	1291
bin	0.0001247424	1195
bin	0.0001255968	1193
bin	0.0001264512	1138
bin	0.0001273056	1150
bin	0.00012816	1179
bin	0.0001290144	1127
bin	0.0001298688	1178
bin	0.0001307232	1076
bin	0.0001315776	1058
bin	0.000132432	1059
bin	0.0001332864	1053
bin	0.0001341408	1078
bin	0.0001349952	1078
bin	0.0001358496	1033
bin	0.000136704	1006
bin	0.0001375584	1027
bin	0.0001384128	1042
bin	0.0001392672	1044
bin	0.0001401216	1047
bin	0.000140976	1029
bin	0.0001418304	1010
bin	0.0001426848	962
bin	0.0001435392	1050
bin	0.0001443936	980
bin	0.000145248	1020
bin	0.0001461024	1026
bin	0.0001469568	1016
bin	0.0001478112	1028
bin	0.0001486656	907
bin	0.00014952	912
bin	0.0001503744	940
bin	0.0001512288	895
bin	0.0001520832	932
bin	0.0001529376	929
bin	0.000153792	902
bin	0.0001546464	875
bin	0.0001555008	849
bin	0.0001563552	881
bin	0.0001572096	884
bin	0.000158064	909
bin	0.0001589184	896
bin	0.0001597728	860
bin	0.0001606272	933
bin	0.0001614816	893
bin	0.000162336	866
bin	0.0001631904	909
bin	0.0001640448	856
bin	0.0001648992	915
bin	0.0001657536	939
bin	0.000166608	911
bin	0.0001674624	917
bin	0.0001683168	893
bin	0.0001691712	877
bin	0.0001700256	872
bin	0.00017088	844
bin	0.0001717344	864
bin	0.0001725888	882
bin	0.0001734432	826
bin	0.0001742976	869
bin	0.000175152	811
bin	0.0001760064	826
bin	0.0001768608	798
bin	0.0001777152	818
bin	0.0001785696	768
bin	0.000179424	764
bin	0.0001802784	801
bin	0.0001811328	827
bin	0.0001819872	811
bin	0.0001828416	764
bin	0.000183696	783
bin	0.0001845504	811
bin	0.0001854048	747
bin	0.0001862592	769
bin	0.0001871136	765
bin	0.000187968	764
bin	0.0001888224	726
bin	0.0001896768	755
bin	0.0001905312	754
bin	0.0001913856	706
bin	0.00019224	781
bin	0.0001930944	734
bin	0.0001939488	725
bin	0.0001948032	765
bin	0.0001956576	771
bin	0.000196512	748
bin	0.0001973664	741
bin	0.0001982208	779
bin	0.0001990752	764
bin	0.0001999296	796
bin	0.000200784	797
bin	0.0002016384	749
bin	0.0002024928	747
bin	0.0002033472	756
bin	0.0002042016	734
bin	0.000205056	769
bin	0.0002059104	788
bin	0.0002067648	786
bin	0.0002076192	793
bin	0.0002084736	798
bin	0.000209328	716
bin	0.0002101824	733
bin	0.0002110368	693
bin	0.0002118912	665
bin	0.0002127456	731
bin	0.0002136	717
bin	0.0002144544	718
bin	0.0002153088	700
bin	0.0002161632	713
bin	0.0002170176	676
bin	0.000217872	742
bin	0.0002187264	713
bin	0.0002195808	675
bin	0.0002204352	688
bin	0.0002212896	677
bin	0.000222144	709
bin	0.0002229984	721
bin	0.0002238528	731
bin	0.0002247072	695
bin	0.0002255616	672
bin	0.000226416	728
bin	0.0002272704	663
bin	0.0002281248	633
bin	0.0002289792	629
bin	0.0002298336	626
bin	0.000230688	658
bin	0.0002315424	578
bin	0.0002323968	637
bin	0.0002332512	643
bin	0.0002341056	648
bin	0.00023496	656
bin	0.0002358144	639
bin	0.0002366688	604
bin	0.0002375232	682
bin	0.0002383776	700
bin	0.000239232	678
bin	0.0002400864	652
bin	0.0002409408	638
bin	0.0002417952	605
bin	0.0002426496	605
bin	0.000243504	649
bin	0.0002443584	645
bin	0.0002452128	620
bin	0.0002460672	652
bin	0.0002469216	660
bin	0.000247776	602
bin	0.0002486304	675
bin	0.0002494848	611
bin	0.0002503392	605
bin	0.0002511936	626
bin	0.000252048	641
bin	0.0002529024	645
bin	0.0002537568	651
bin	0.0002546112	662
bin	0.0002554656	658
bin	0.00025632	685
bin	0.0002571744	668
bin	0.0002580288	644
bin	0.0002588832	676
bin	0.0002597376	676
bin	0.000260592	614
bin	0.0002614464	671
bin	0.0002623008	648
bin	0.0002631552	613
bin	0.0002640096	622
bin	0.000264864	625
bin	0.0002657184	607
bin	0.0002665728	624
bin	0.0002674272	569
bin	0.0002682816	549
bin	0.000269136	565
bin	0.0002699904	617
bin	0.0002708448	614
bin	0.0002716992	602
bin	0.0002725536	644
bin	0.000273408	594
bin	0.0002742624	629
bin	0.0002751168	622
bin	0.0002759712	615
bin	0.0002768256	592
bin	0.00027768	591
bin	0.0002785344	558
bin	0.0002793888	570
bin	0.0002802432	583
bin	0.0002810976	621
bin	0.000281952	572
bin	0.0002828064	577
bin	0.0002836608	589
bin	0.0002845152	555
bin	0.0002853696	549
bin	0.000286224	549
bin	0.0002870784	590
bin	0.0002879328	589
bin	0.0002887872	575
bin	0.0002896416	585
bin	0.000290496	596
bin	0.0002913504	604
bin	0.0002922048	573
bin	0.0002930592	537
bin	0.0002939136	588
bin	0.000294768	548
bin	0.0002956224	573
bin	0.0002964768	549
bin	0.0002973312	549
bin	0.0002981856	555
bin	0.00029904	564
bin	0.0002998944	583
bin	0.0003007488	586
bin	0.0003016032	587
bin	0.0003024576	559
bin	0.000303312	563
bin	0.0003041664	579
bin	0.0003050208	556
bin	0.0003058752	558
bin	0.0003067296	591
bin	0.000307584	569
bin	0.0003084384	583
bin	0.0003092928	543
bin	0.0003101472	554
bin	0.0003110016	550
bin	0.000311856	511
bin	0.0003127104	489
bin	0.0003135648	505
bin	0.0003144192	549
bin	0.0003152736	558
bin	0.000316128	528
bin	0.0003169824	500
bin	0.0003178368	498
bin	0.0003186912	510
bin	0.0003195456	475
bin	0.0003204	487
bin	0.0003212544	463
bin	0.0003221088	511
bin	0.0003229632	477
bin	0.0003238176	492
bin	0.000324672	442
bin	0.0003255264	499
bin	0.0003263808	546
bin	0.0003272352	509
bin	0.0003280896	484
bin	0.000328944	503
bin	0.0003297984	523
bin	0.0003306528	506
bin	0.0003315072	499
bin	0.0003323616	521
bin	0.000333216	520
bin	0.0003340704	483
bin	0.0003349248	485
bin	0.0003357792	521
bin	0.0003366336	483
bin	0.000337488	467
bin	0.0003383424	521
bin	0.0003391968	503
bin	0.0003400512	504
bin	0.0003409056	514
bin	0.00034176	490
bin	0.0003426144	543
bin	0.0003434688	485
bin	0.0003443232	526
bin	0.0003451776	536
bin	0.000346032	504
bin	0.0003468864	481
bin	0.0003477408	466
bin	0.0003485952	484
bin	0.0003494496	508
bin	0.000350304	465
bin	0.0003511584	484
bin	0.0003520128	453
bin	0.0003528672	476
bin	0.0003537216	458
bin	0.000354576	466
bin	0.0003554304	447
bin	0.0003562848	458
bin	0.0003571392	482
bin	0.0003579936	500
bin	0.000358848	498
bin	0.0003597024	412
bin	0.0003605568	438
bin	0.0003614112	404
bin	0.0003622656	459
bin	0.00036312	445
bin	0.0003639744	464
bin	0.0003648288	454
bin	0.0003656832	461
bin	0.0003665376	453
bin	0.000367392	466
bin	0.0003682464	493
bin	0.0003691008	499
bin	0.0003699552	496
bin	0.0003708096	463
bin	0.000371664	494
bin	0.0003725184	466
bin	0.0003733728	438
bin	0.0003742272	485
bin	0.0003750816	466
bin	0.000375936	472
bin	0.0003767904	511
bin	0.0003776448	483
bin	0.0003784992	504
bin	0.0003793536	437
bin	0.000380208	468
bin	0.0003810624	477
bin	0.0003819168	462
bin	0.0003827712	424
bin	0.0003836256	427
bin	0.00038448	475
bin	0.0003853344	501
bin	0.0003861888	443
bin	0.0003870432	498
bin	0.0003878976	484
bin	0.000388752	467
bin	0.0003896064	438
bin	0.0003904608	471
bin	0.0003913152	481
bin	0.0003921696	485
bin	0.000393024	420
bin	0.0003938784	441
bin	0.0003947328	403
bin	0.0003955872	442
bin	0.0003964416	460
bin	0.000397296	472
bin	0.0003981504	458
bin	0.0003990048	429
bin	0.0003998592	442
bin	0.0004007136	442
bin	0.000401568	439
bin	0.0004024224	456
bin	0.0004032768	446
bin	0.0004041312	476
bin	0.0004049856	440
bin	0.00040584	475
bin	0.0004066944	459
bin	0.0004075488	431
bin	0.0004084032	415
bin	0.0004092576	431
bin	0.000410112	426
bin	0.0004109664	446
bin	0.0004118208	495
bin	0.0004126752	492
bin	0.0004135296	446
bin	0.000414384	480
bin	0.0004152384	471
bin	0.0004160928	475
bin	0.0004169472	483
bin	0.0004178016	506
bin	0.000418656	508
bin	0.0004195104	489
bin	0.0004203648	466
bin	0.0004212192	465
bin	0.0004220736	445
bin	0.000422928	484
bin	0.0004237824	455
bin	0.0004246368	500
bin	0.0004254912	464
bin	0.0004263456	445
bin	0.0004272	5752520
