version 2
run Tornado-1-20120709-22:04:23-24941
attr alg 1
attr buf 8
attr configname Tornado
attr datetime 20120709-22:04:23
attr delta 0.2
attr experiment Tornado
attr ext true
attr inifile altro.ini
attr iterationvars "$buf=8, $ext=true, $ofedge=1, $delta=0.2, $alg=1"
attr iterationvars2 "$buf=8, $ext=true, $ofedge=1, $delta=0.2, $alg=1, $repetition=0"
attr measurement "$buf=8, $ext=true, $ofedge=1, $delta=0.2, $alg=1"
attr network Torus3d_bub
attr ofedge 1
attr processid 24941
attr repetition 0
attr replication #0
attr resultdir altro-results
attr runnumber 1
attr seedset 1

scalar . 	alg 	1
scalar . 	buf 	8
scalar . 	delta 	0.2
scalar . 	ofedge 	1
scalar Torus3d_bub.timer 	#endTime 	0.017261550973548
scalar Torus3d_bub.timer 	#totalHops 	155429062
scalar Torus3d_bub.timer 	#totalPacks 	6291456
scalar Torus3d_bub.timer 	#totalDerouted 	4797024
scalar Torus3d_bub.timer 	#totalOutFlanked 	4797024
scalar Torus3d_bub.timer 	#totalCQRed 	0
scalar Torus3d_bub.timer 	#LB 	0.000786432
scalar Torus3d_bub.timer 	#ratio 	0.045559753072314
statistic Torus3d_bub.timer 	"Hop Times"
field count 6291456
field mean 0.00034087274881805
field stddev 0.00020983784857907
field sum 2144.5859007878
field sqrsum 1.0080557512852
field min 6.35428571e-07
field max 0.000804325713026
bin	-INF	0
bin	0	0
bin	7.12e-08	0
bin	1.424e-07	0
bin	2.136e-07	0
bin	2.848e-07	0
bin	3.56e-07	0
bin	4.272e-07	0
bin	4.984e-07	0
bin	5.696e-07	1
bin	6.408e-07	4
bin	7.12e-07	10
bin	7.832e-07	30
bin	8.544e-07	53
bin	9.256e-07	78
bin	9.968e-07	149
bin	1.068e-06	227
bin	1.1392e-06	309
bin	1.2104e-06	605
bin	1.2816e-06	934
bin	1.3528e-06	1289
bin	1.424e-06	1535
bin	1.4952e-06	2011
bin	1.5664e-06	3244
bin	1.6376e-06	3113
bin	1.7088e-06	4334
bin	1.78e-06	4322
bin	1.8512e-06	4698
bin	1.9224e-06	4824
bin	1.9936e-06	5225
bin	2.0648e-06	6018
bin	2.136e-06	6960
bin	2.2072e-06	7461
bin	2.2784e-06	8401
bin	2.3496e-06	8680
bin	2.4208e-06	9038
bin	2.492e-06	9464
bin	2.5632e-06	9851
bin	2.6344e-06	9926
bin	2.7056e-06	10475
bin	2.7768e-06	10489
bin	2.848e-06	10793
bin	2.9192e-06	10945
bin	2.9904e-06	11528
bin	3.0616e-06	11966
bin	3.1328e-06	11908
bin	3.204e-06	12620
bin	3.2752e-06	12915
bin	3.3464e-06	13208
bin	3.4176e-06	13467
bin	3.4888e-06	13801
bin	3.56e-06	14078
bin	3.6312e-06	14655
bin	3.7024e-06	15058
bin	3.7736e-06	15525
bin	3.8448e-06	16029
bin	3.916e-06	16368
bin	3.9872e-06	16451
bin	4.0584e-06	16982
bin	4.1296e-06	17612
bin	4.2008e-06	17623
bin	4.272e-06	17805
bin	4.3432e-06	18011
bin	4.4144e-06	18390
bin	4.4856e-06	18282
bin	4.5568e-06	18623
bin	4.628e-06	18748
bin	4.6992e-06	18756
bin	4.7704e-06	18426
bin	4.8416e-06	17791
bin	4.9128e-06	16703
bin	4.984e-06	15456
bin	5.0552e-06	14424
bin	5.1264e-06	13459
bin	5.1976e-06	12726
bin	5.2688e-06	12137
bin	5.34e-06	11500
bin	5.4112e-06	11143
bin	5.4824e-06	11073
bin	5.5536e-06	10715
bin	5.6248e-06	10216
bin	5.696e-06	9914
bin	5.7672e-06	9691
bin	5.8384e-06	9324
bin	5.9096e-06	7800
bin	5.9808e-06	6827
bin	6.052e-06	6430
bin	6.1232e-06	5746
bin	6.1944e-06	4887
bin	6.2656e-06	4397
bin	6.3368e-06	3911
bin	6.408e-06	3550
bin	6.4792e-06	3290
bin	6.5504e-06	3098
bin	6.6216e-06	2971
bin	6.6928e-06	2861
bin	6.764e-06	2880
bin	6.8352e-06	2780
bin	6.9064e-06	2778
bin	6.9776e-06	2799
bin	7.0488e-06	2910
bin	7.12e-06	2977
bin	7.1912e-06	2897
bin	7.2624e-06	2861
bin	7.3336e-06	2993
bin	7.4048e-06	2930
bin	7.476e-06	2866
bin	7.5472e-06	2930
bin	7.6184e-06	2977
bin	7.6896e-06	2954
bin	7.7608e-06	3035
bin	7.832e-06	3019
bin	7.9032e-06	3065
bin	7.9744e-06	3031
bin	8.0456e-06	2964
bin	8.1168e-06	3047
bin	8.188e-06	2998
bin	8.2592e-06	3035
bin	8.3304e-06	3058
bin	8.4016e-06	3103
bin	8.4728e-06	3155
bin	8.544e-06	3104
bin	8.6152e-06	3186
bin	8.6864e-06	3253
bin	8.7576e-06	3275
bin	8.8288e-06	3219
bin	8.9e-06	3346
bin	8.9712e-06	3382
bin	9.0424e-06	3351
bin	9.1136e-06	3302
bin	9.1848e-06	3559
bin	9.256e-06	3430
bin	9.3272e-06	3437
bin	9.3984e-06	3508
bin	9.4696e-06	3460
bin	9.5408e-06	3451
bin	9.612e-06	3397
bin	9.6832e-06	3283
bin	9.7544e-06	3108
bin	9.8256e-06	2857
bin	9.8968e-06	2676
bin	9.968e-06	2540
bin	1.00392e-05	2341
bin	1.01104e-05	2171
bin	1.01816e-05	2042
bin	1.02528e-05	1953
bin	1.0324e-05	1809
bin	1.03952e-05	1729
bin	1.04664e-05	1731
bin	1.05376e-05	1647
bin	1.06088e-05	1672
bin	1.068e-05	1583
bin	1.07512e-05	1625
bin	1.08224e-05	1645
bin	1.08936e-05	1685
bin	1.09648e-05	1670
bin	1.1036e-05	1675
bin	1.11072e-05	1721
bin	1.11784e-05	1711
bin	1.12496e-05	1589
bin	1.13208e-05	1660
bin	1.1392e-05	1776
bin	1.14632e-05	1773
bin	1.15344e-05	1724
bin	1.16056e-05	1747
bin	1.16768e-05	1890
bin	1.1748e-05	1843
bin	1.18192e-05	1741
bin	1.18904e-05	1697
bin	1.19616e-05	1708
bin	1.20328e-05	1646
bin	1.2104e-05	1519
bin	1.21752e-05	1414
bin	1.22464e-05	1364
bin	1.23176e-05	1367
bin	1.23888e-05	1351
bin	1.246e-05	1380
bin	1.25312e-05	1270
bin	1.26024e-05	1316
bin	1.26736e-05	1313
bin	1.27448e-05	1352
bin	1.2816e-05	1298
bin	1.28872e-05	1366
bin	1.29584e-05	1266
bin	1.30296e-05	1203
bin	1.31008e-05	1241
bin	1.3172e-05	1288
bin	1.32432e-05	1266
bin	1.33144e-05	1374
bin	1.33856e-05	1256
bin	1.34568e-05	1228
bin	1.3528e-05	1353
bin	1.35992e-05	1292
bin	1.36704e-05	1330
bin	1.37416e-05	1347
bin	1.38128e-05	1379
bin	1.3884e-05	1361
bin	1.39552e-05	1404
bin	1.40264e-05	1273
bin	1.40976e-05	1311
bin	1.41688e-05	1337
bin	1.424e-05	1363
bin	1.43112e-05	1303
bin	1.43824e-05	1254
bin	1.44536e-05	1192
bin	1.45248e-05	1231
bin	1.4596e-05	1123
bin	1.46672e-05	1047
bin	1.47384e-05	1042
bin	1.48096e-05	995
bin	1.48808e-05	919
bin	1.4952e-05	860
bin	1.50232e-05	930
bin	1.50944e-05	806
bin	1.51656e-05	764
bin	1.52368e-05	765
bin	1.5308e-05	741
bin	1.53792e-05	751
bin	1.54504e-05	699
bin	1.55216e-05	691
bin	1.55928e-05	702
bin	1.5664e-05	704
bin	1.57352e-05	713
bin	1.58064e-05	715
bin	1.58776e-05	679
bin	1.59488e-05	692
bin	1.602e-05	600
bin	1.60912e-05	664
bin	1.61624e-05	669
bin	1.62336e-05	682
bin	1.63048e-05	756
bin	1.6376e-05	811
bin	1.64472e-05	750
bin	1.65184e-05	811
bin	1.65896e-05	807
bin	1.66608e-05	729
bin	1.6732e-05	766
bin	1.68032e-05	792
bin	1.68744e-05	767
bin	1.69456e-05	859
bin	1.70168e-05	805
bin	1.7088e-05	910
bin	1.71592e-05	902
bin	1.72304e-05	833
bin	1.73016e-05	979
bin	1.73728e-05	1013
bin	1.7444e-05	938
bin	1.75152e-05	919
bin	1.75864e-05	936
bin	1.76576e-05	882
bin	1.77288e-05	877
bin	1.78e-05	836
bin	1.78712e-05	868
bin	1.79424e-05	783
bin	1.80136e-05	832
bin	1.80848e-05	781
bin	1.8156e-05	825
bin	1.82272e-05	845
bin	1.82984e-05	753
bin	1.83696e-05	790
bin	1.84408e-05	776
bin	1.8512e-05	739
bin	1.85832e-05	758
bin	1.86544e-05	760
bin	1.87256e-05	810
bin	1.87968e-05	740
bin	1.8868e-05	763
bin	1.89392e-05	764
bin	1.90104e-05	748
bin	1.90816e-05	734
bin	1.91528e-05	669
bin	1.9224e-05	624
bin	1.92952e-05	655
bin	1.93664e-05	602
bin	1.94376e-05	613
bin	1.95088e-05	571
bin	1.958e-05	577
bin	1.96512e-05	615
bin	1.97224e-05	537
bin	1.97936e-05	566
bin	1.98648e-05	551
bin	1.9936e-05	493
bin	2.00072e-05	476
bin	2.00784e-05	477
bin	2.01496e-05	432
bin	2.02208e-05	486
bin	2.0292e-05	462
bin	2.03632e-05	477
bin	2.04344e-05	436
bin	2.05056e-05	463
bin	2.05768e-05	436
bin	2.0648e-05	428
bin	2.07192e-05	443
bin	2.07904e-05	431
bin	2.08616e-05	436
bin	2.09328e-05	454
bin	2.1004e-05	461
bin	2.10752e-05	450
bin	2.11464e-05	482
bin	2.12176e-05	467
bin	2.12888e-05	458
bin	2.136e-05	480
bin	2.14312e-05	492
bin	2.15024e-05	460
bin	2.15736e-05	427
bin	2.16448e-05	437
bin	2.1716e-05	434
bin	2.17872e-05	514
bin	2.18584e-05	509
bin	2.19296e-05	555
bin	2.20008e-05	544
bin	2.2072e-05	488
bin	2.21432e-05	528
bin	2.22144e-05	495
bin	2.22856e-05	530
bin	2.23568e-05	480
bin	2.2428e-05	487
bin	2.24992e-05	479
bin	2.25704e-05	510
bin	2.26416e-05	558
bin	2.27128e-05	542
bin	2.2784e-05	569
bin	2.28552e-05	543
bin	2.29264e-05	542
bin	2.29976e-05	570
bin	2.30688e-05	587
bin	2.314e-05	594
bin	2.32112e-05	598
bin	2.32824e-05	589
bin	2.33536e-05	610
bin	2.34248e-05	622
bin	2.3496e-05	578
bin	2.35672e-05	568
bin	2.36384e-05	578
bin	2.37096e-05	612
bin	2.37808e-05	602
bin	2.3852e-05	570
bin	2.39232e-05	544
bin	2.39944e-05	516
bin	2.40656e-05	449
bin	2.41368e-05	431
bin	2.4208e-05	365
bin	2.42792e-05	376
bin	2.43504e-05	389
bin	2.44216e-05	444
bin	2.44928e-05	406
bin	2.4564e-05	362
bin	2.46352e-05	320
bin	2.47064e-05	345
bin	2.47776e-05	326
bin	2.48488e-05	345
bin	2.492e-05	335
bin	2.49912e-05	348
bin	2.50624e-05	363
bin	2.51336e-05	326
bin	2.52048e-05	322
bin	2.5276e-05	311
bin	2.53472e-05	306
bin	2.54184e-05	357
bin	2.54896e-05	340
bin	2.55608e-05	326
bin	2.5632e-05	328
bin	2.57032e-05	332
bin	2.57744e-05	339
bin	2.58456e-05	331
bin	2.59168e-05	313
bin	2.5988e-05	360
bin	2.60592e-05	367
bin	2.61304e-05	391
bin	2.62016e-05	393
bin	2.62728e-05	370
bin	2.6344e-05	392
bin	2.64152e-05	360
bin	2.64864e-05	338
bin	2.65576e-05	337
bin	2.66288e-05	373
bin	2.67e-05	340
bin	2.67712e-05	358
bin	2.68424e-05	383
bin	2.69136e-05	384
bin	2.69848e-05	344
bin	2.7056e-05	356
bin	2.71272e-05	360
bin	2.71984e-05	378
bin	2.72696e-05	415
bin	2.73408e-05	374
bin	2.7412e-05	342
bin	2.74832e-05	371
bin	2.75544e-05	389
bin	2.76256e-05	374
bin	2.76968e-05	437
bin	2.7768e-05	455
bin	2.78392e-05	390
bin	2.79104e-05	394
bin	2.79816e-05	381
bin	2.80528e-05	411
bin	2.8124e-05	424
bin	2.81952e-05	388
bin	2.82664e-05	410
bin	2.83376e-05	443
bin	2.84088e-05	439
bin	2.848e-05	414
bin	2.85512e-05	428
bin	2.86224e-05	378
bin	2.86936e-05	376
bin	2.87648e-05	381
bin	2.8836e-05	351
bin	2.89072e-05	369
bin	2.89784e-05	356
bin	2.90496e-05	312
bin	2.91208e-05	318
bin	2.9192e-05	316
bin	2.92632e-05	314
bin	2.93344e-05	326
bin	2.94056e-05	337
bin	2.94768e-05	376
bin	2.9548e-05	329
bin	2.96192e-05	344
bin	2.96904e-05	372
bin	2.97616e-05	356
bin	2.98328e-05	322
bin	2.9904e-05	273
bin	2.99752e-05	251
bin	3.00464e-05	238
bin	3.01176e-05	257
bin	3.01888e-05	292
bin	3.026e-05	248
bin	3.03312e-05	281
bin	3.04024e-05	246
bin	3.04736e-05	301
bin	3.05448e-05	293
bin	3.0616e-05	280
bin	3.06872e-05	301
bin	3.07584e-05	290
bin	3.08296e-05	304
bin	3.09008e-05	241
bin	3.0972e-05	254
bin	3.10432e-05	274
bin	3.11144e-05	261
bin	3.11856e-05	267
bin	3.12568e-05	281
bin	3.1328e-05	286
bin	3.13992e-05	318
bin	3.14704e-05	326
bin	3.15416e-05	322
bin	3.16128e-05	320
bin	3.1684e-05	358
bin	3.17552e-05	288
bin	3.18264e-05	295
bin	3.18976e-05	307
bin	3.19688e-05	301
bin	3.204e-05	316
bin	3.21112e-05	327
bin	3.21824e-05	308
bin	3.22536e-05	309
bin	3.23248e-05	313
bin	3.2396e-05	305
bin	3.24672e-05	271
bin	3.25384e-05	302
bin	3.26096e-05	294
bin	3.26808e-05	323
bin	3.2752e-05	313
bin	3.28232e-05	333
bin	3.28944e-05	334
bin	3.29656e-05	338
bin	3.30368e-05	341
bin	3.3108e-05	304
bin	3.31792e-05	320
bin	3.32504e-05	310
bin	3.33216e-05	303
bin	3.33928e-05	277
bin	3.3464e-05	287
bin	3.35352e-05	290
bin	3.36064e-05	285
bin	3.36776e-05	265
bin	3.37488e-05	272
bin	3.382e-05	293
bin	3.38912e-05	272
bin	3.39624e-05	287
bin	3.40336e-05	244
bin	3.41048e-05	256
bin	3.4176e-05	259
bin	3.42472e-05	241
bin	3.43184e-05	266
bin	3.43896e-05	246
bin	3.44608e-05	230
bin	3.4532e-05	259
bin	3.46032e-05	284
bin	3.46744e-05	305
bin	3.47456e-05	289
bin	3.48168e-05	282
bin	3.4888e-05	273
bin	3.49592e-05	272
bin	3.50304e-05	264
bin	3.51016e-05	253
bin	3.51728e-05	279
bin	3.5244e-05	244
bin	3.53152e-05	252
bin	3.53864e-05	301
bin	3.54576e-05	262
bin	3.55288e-05	223
bin	3.56e-05	5104923
statistic Torus3d_bub.timer 	"Life Times"
field count 6291456
field mean 0.0083359962839297
field stddev 0.0049465280171797
field sum 52445.553836507
field sqrsum 591.12614001426
field min 1.3343999999e-05
field max 0.016890839973548
bin	-INF	0
bin	0	0
bin	8.544e-07	0
bin	1.7088e-06	0
bin	2.5632e-06	0
bin	3.4176e-06	0
bin	4.272e-06	0
bin	5.1264e-06	0
bin	5.9808e-06	0
bin	6.8352e-06	0
bin	7.6896e-06	0
bin	8.544e-06	0
bin	9.3984e-06	0
bin	1.02528e-05	0
bin	1.11072e-05	0
bin	1.19616e-05	0
bin	1.2816e-05	1
bin	1.36704e-05	1
bin	1.45248e-05	3
bin	1.53792e-05	7
bin	1.62336e-05	13
bin	1.7088e-05	20
bin	1.79424e-05	22
bin	1.87968e-05	36
bin	1.96512e-05	52
bin	2.05056e-05	55
bin	2.136e-05	93
bin	2.22144e-05	121
bin	2.30688e-05	118
bin	2.39232e-05	148
bin	2.47776e-05	213
bin	2.5632e-05	310
bin	2.64864e-05	365
bin	2.73408e-05	572
bin	2.81952e-05	637
bin	2.90496e-05	743
bin	2.9904e-05	866
bin	3.07584e-05	828
bin	3.16128e-05	954
bin	3.24672e-05	1543
bin	3.33216e-05	1606
bin	3.4176e-05	1319
bin	3.50304e-05	1599
bin	3.58848e-05	1906
bin	3.67392e-05	1924
bin	3.75936e-05	2062
bin	3.8448e-05	1945
bin	3.93024e-05	1939
bin	4.01568e-05	2032
bin	4.10112e-05	1987
bin	4.18656e-05	1978
bin	4.272e-05	2288
bin	4.35744e-05	2224
bin	4.44288e-05	2343
bin	4.52832e-05	2712
bin	4.61376e-05	2578
bin	4.6992e-05	2643
bin	4.78464e-05	2977
bin	4.87008e-05	2790
bin	4.95552e-05	2841
bin	5.04096e-05	3120
bin	5.1264e-05	3018
bin	5.21184e-05	3424
bin	5.29728e-05	3273
bin	5.38272e-05	3452
bin	5.46816e-05	3733
bin	5.5536e-05	3546
bin	5.63904e-05	3731
bin	5.72448e-05	4221
bin	5.80992e-05	3887
bin	5.89536e-05	3971
bin	5.9808e-05	4359
bin	6.06624e-05	4164
bin	6.15168e-05	4248
bin	6.23712e-05	4532
bin	6.32256e-05	4302
bin	6.408e-05	4642
bin	6.49344e-05	4817
bin	6.57888e-05	4567
bin	6.66432e-05	4545
bin	6.74976e-05	5125
bin	6.8352e-05	4896
bin	6.92064e-05	4957
bin	7.00608e-05	5283
bin	7.09152e-05	5021
bin	7.17696e-05	5208
bin	7.2624e-05	5471
bin	7.34784e-05	5244
bin	7.43328e-05	5162
bin	7.51872e-05	5743
bin	7.60416e-05	5554
bin	7.6896e-05	5721
bin	7.77504e-05	6071
bin	7.86048e-05	5915
bin	7.94592e-05	6019
bin	8.03136e-05	6459
bin	8.1168e-05	6196
bin	8.20224e-05	6371
bin	8.28768e-05	6749
bin	8.37312e-05	6519
bin	8.45856e-05	6732
bin	8.544e-05	7003
bin	8.62944e-05	6938
bin	8.71488e-05	7088
bin	8.80032e-05	7259
bin	8.88576e-05	7249
bin	8.9712e-05	7421
bin	9.05664e-05	7614
bin	9.14208e-05	7543
bin	9.22752e-05	7627
bin	9.31296e-05	8077
bin	9.3984e-05	7927
bin	9.48384e-05	8164
bin	9.56928e-05	8621
bin	9.65472e-05	8494
bin	9.74016e-05	8714
bin	9.8256e-05	9045
bin	9.91104e-05	8922
bin	9.99648e-05	8903
bin	0.0001008192	9336
bin	0.0001016736	9374
bin	0.000102528	9368
bin	0.0001033824	9884
bin	0.0001042368	9832
bin	0.0001050912	9691
bin	0.0001059456	10083
bin	0.0001068	10006
bin	0.0001076544	10188
bin	0.0001085088	10432
bin	0.0001093632	10608
bin	0.0001102176	10554
bin	0.000111072	10650
bin	0.0001119264	10643
bin	0.0001127808	10794
bin	0.0001136352	10694
bin	0.0001144896	10866
bin	0.000115344	10793
bin	0.0001161984	10992
bin	0.0001170528	10855
bin	0.0001179072	10602
bin	0.0001187616	10792
bin	0.000119616	10664
bin	0.0001204704	10596
bin	0.0001213248	10443
bin	0.0001221792	10174
bin	0.0001230336	10001
bin	0.000123888	8848
bin	0.0001247424	8246
bin	0.0001255968	7484
bin	0.0001264512	6937
bin	0.0001273056	6654
bin	0.00012816	6147
bin	0.0001290144	5601
bin	0.0001298688	5035
bin	0.0001307232	4552
bin	0.0001315776	4170
bin	0.000132432	3839
bin	0.0001332864	3469
bin	0.0001341408	3155
bin	0.0001349952	2878
bin	0.0001358496	2584
bin	0.000136704	2351
bin	0.0001375584	2208
bin	0.0001384128	2048
bin	0.0001392672	1872
bin	0.0001401216	1659
bin	0.000140976	1617
bin	0.0001418304	1629
bin	0.0001426848	1487
bin	0.0001435392	1500
bin	0.0001443936	1469
bin	0.000145248	1507
bin	0.0001461024	1470
bin	0.0001469568	1447
bin	0.0001478112	1326
bin	0.0001486656	1358
bin	0.00014952	1379
bin	0.0001503744	1322
bin	0.0001512288	1323
bin	0.0001520832	1288
bin	0.0001529376	1261
bin	0.000153792	1248
bin	0.0001546464	1267
bin	0.0001555008	1299
bin	0.0001563552	1296
bin	0.0001572096	1303
bin	0.000158064	1297
bin	0.0001589184	1277
bin	0.0001597728	1368
bin	0.0001606272	1260
bin	0.0001614816	1214
bin	0.000162336	1248
bin	0.0001631904	1283
bin	0.0001640448	1272
bin	0.0001648992	1283
bin	0.0001657536	1310
bin	0.000166608	1270
bin	0.0001674624	1294
bin	0.0001683168	1258
bin	0.0001691712	1269
bin	0.0001700256	1292
bin	0.00017088	1307
bin	0.0001717344	1253
bin	0.0001725888	1236
bin	0.0001734432	1340
bin	0.0001742976	1307
bin	0.000175152	1260
bin	0.0001760064	1251
bin	0.0001768608	1307
bin	0.0001777152	1287
bin	0.0001785696	1292
bin	0.000179424	1237
bin	0.0001802784	1289
bin	0.0001811328	1334
bin	0.0001819872	1340
bin	0.0001828416	1354
bin	0.000183696	1426
bin	0.0001845504	1405
bin	0.0001854048	1417
bin	0.0001862592	1434
bin	0.0001871136	1431
bin	0.000187968	1413
bin	0.0001888224	1400
bin	0.0001896768	1439
bin	0.0001905312	1457
bin	0.0001913856	1479
bin	0.00019224	1464
bin	0.0001930944	1497
bin	0.0001939488	1428
bin	0.0001948032	1459
bin	0.0001956576	1423
bin	0.000196512	1439
bin	0.0001973664	1439
bin	0.0001982208	1466
bin	0.0001990752	1455
bin	0.0001999296	1475
bin	0.000200784	1470
bin	0.0002016384	1456
bin	0.0002024928	1480
bin	0.0002033472	1495
bin	0.0002042016	1513
bin	0.000205056	1541
bin	0.0002059104	1499
bin	0.0002067648	1565
bin	0.0002076192	1468
bin	0.0002084736	1530
bin	0.000209328	1580
bin	0.0002101824	1596
bin	0.0002110368	1574
bin	0.0002118912	1558
bin	0.0002127456	1546
bin	0.0002136	1521
bin	0.0002144544	1556
bin	0.0002153088	1579
bin	0.0002161632	1604
bin	0.0002170176	1595
bin	0.000217872	1571
bin	0.0002187264	1484
bin	0.0002195808	1628
bin	0.0002204352	1576
bin	0.0002212896	1575
bin	0.000222144	1602
bin	0.0002229984	1636
bin	0.0002238528	1628
bin	0.0002247072	1616
bin	0.0002255616	1704
bin	0.000226416	1679
bin	0.0002272704	1676
bin	0.0002281248	1710
bin	0.0002289792	1750
bin	0.0002298336	1706
bin	0.000230688	1760
bin	0.0002315424	1852
bin	0.0002323968	1757
bin	0.0002332512	1808
bin	0.0002341056	1803
bin	0.00023496	1924
bin	0.0002358144	1789
bin	0.0002366688	1829
bin	0.0002375232	1822
bin	0.0002383776	1879
bin	0.000239232	1928
bin	0.0002400864	1970
bin	0.0002409408	1984
bin	0.0002417952	2009
bin	0.0002426496	1985
bin	0.000243504	1984
bin	0.0002443584	2002
bin	0.0002452128	2016
bin	0.0002460672	1982
bin	0.0002469216	1925
bin	0.000247776	1954
bin	0.0002486304	1832
bin	0.0002494848	1756
bin	0.0002503392	1709
bin	0.0002511936	1667
bin	0.000252048	1520
bin	0.0002529024	1475
bin	0.0002537568	1426
bin	0.0002546112	1271
bin	0.0002554656	1211
bin	0.00025632	1176
bin	0.0002571744	1051
bin	0.0002580288	969
bin	0.0002588832	911
bin	0.0002597376	891
bin	0.000260592	844
bin	0.0002614464	791
bin	0.0002623008	778
bin	0.0002631552	714
bin	0.0002640096	642
bin	0.000264864	666
bin	0.0002657184	603
bin	0.0002665728	617
bin	0.0002674272	622
bin	0.0002682816	576
bin	0.000269136	546
bin	0.0002699904	556
bin	0.0002708448	529
bin	0.0002716992	569
bin	0.0002725536	520
bin	0.000273408	494
bin	0.0002742624	486
bin	0.0002751168	465
bin	0.0002759712	508
bin	0.0002768256	448
bin	0.00027768	462
bin	0.0002785344	480
bin	0.0002793888	464
bin	0.0002802432	467
bin	0.0002810976	434
bin	0.000281952	465
bin	0.0002828064	486
bin	0.0002836608	492
bin	0.0002845152	507
bin	0.0002853696	503
bin	0.000286224	489
bin	0.0002870784	447
bin	0.0002879328	459
bin	0.0002887872	476
bin	0.0002896416	501
bin	0.000290496	514
bin	0.0002913504	510
bin	0.0002922048	500
bin	0.0002930592	474
bin	0.0002939136	446
bin	0.000294768	444
bin	0.0002956224	499
bin	0.0002964768	477
bin	0.0002973312	463
bin	0.0002981856	507
bin	0.00029904	492
bin	0.0002998944	503
bin	0.0003007488	493
bin	0.0003016032	493
bin	0.0003024576	469
bin	0.000303312	489
bin	0.0003041664	584
bin	0.0003050208	585
bin	0.0003058752	539
bin	0.0003067296	564
bin	0.000307584	569
bin	0.0003084384	564
bin	0.0003092928	585
bin	0.0003101472	555
bin	0.0003110016	611
bin	0.000311856	616
bin	0.0003127104	616
bin	0.0003135648	640
bin	0.0003144192	629
bin	0.0003152736	609
bin	0.000316128	578
bin	0.0003169824	615
bin	0.0003178368	656
bin	0.0003186912	628
bin	0.0003195456	592
bin	0.0003204	590
bin	0.0003212544	633
bin	0.0003221088	631
bin	0.0003229632	676
bin	0.0003238176	600
bin	0.000324672	616
bin	0.0003255264	619
bin	0.0003263808	604
bin	0.0003272352	630
bin	0.0003280896	623
bin	0.000328944	604
bin	0.0003297984	629
bin	0.0003306528	618
bin	0.0003315072	652
bin	0.0003323616	660
bin	0.000333216	663
bin	0.0003340704	695
bin	0.0003349248	644
bin	0.0003357792	676
bin	0.0003366336	626
bin	0.000337488	630
bin	0.0003383424	620
bin	0.0003391968	643
bin	0.0003400512	648
bin	0.0003409056	608
bin	0.00034176	662
bin	0.0003426144	641
bin	0.0003434688	681
bin	0.0003443232	677
bin	0.0003451776	668
bin	0.000346032	677
bin	0.0003468864	704
bin	0.0003477408	728
bin	0.0003485952	709
bin	0.0003494496	668
bin	0.000350304	639
bin	0.0003511584	700
bin	0.0003520128	686
bin	0.0003528672	713
bin	0.0003537216	703
bin	0.000354576	686
bin	0.0003554304	703
bin	0.0003562848	700
bin	0.0003571392	686
bin	0.0003579936	720
bin	0.000358848	731
bin	0.0003597024	739
bin	0.0003605568	752
bin	0.0003614112	741
bin	0.0003622656	697
bin	0.00036312	757
bin	0.0003639744	747
bin	0.0003648288	708
bin	0.0003656832	758
bin	0.0003665376	699
bin	0.000367392	751
bin	0.0003682464	732
bin	0.0003691008	769
bin	0.0003699552	790
bin	0.0003708096	766
bin	0.000371664	778
bin	0.0003725184	712
bin	0.0003733728	627
bin	0.0003742272	669
bin	0.0003750816	629
bin	0.000375936	594
bin	0.0003767904	586
bin	0.0003776448	601
bin	0.0003784992	544
bin	0.0003793536	511
bin	0.000380208	472
bin	0.0003810624	442
bin	0.0003819168	405
bin	0.0003827712	402
bin	0.0003836256	401
bin	0.00038448	403
bin	0.0003853344	348
bin	0.0003861888	360
bin	0.0003870432	336
bin	0.0003878976	306
bin	0.000388752	303
bin	0.0003896064	307
bin	0.0003904608	307
bin	0.0003913152	303
bin	0.0003921696	318
bin	0.000393024	289
bin	0.0003938784	288
bin	0.0003947328	260
bin	0.0003955872	269
bin	0.0003964416	269
bin	0.000397296	252
bin	0.0003981504	248
bin	0.0003990048	238
bin	0.0003998592	249
bin	0.0004007136	246
bin	0.000401568	261
bin	0.0004024224	247
bin	0.0004032768	242
bin	0.0004041312	241
bin	0.0004049856	234
bin	0.00040584	247
bin	0.0004066944	247
bin	0.0004075488	242
bin	0.0004084032	224
bin	0.0004092576	255
bin	0.000410112	267
bin	0.0004109664	256
bin	0.0004118208	256
bin	0.0004126752	268
bin	0.0004135296	286
bin	0.000414384	271
bin	0.0004152384	277
bin	0.0004160928	273
bin	0.0004169472	277
bin	0.0004178016	237
bin	0.000418656	245
bin	0.0004195104	250
bin	0.0004203648	281
bin	0.0004212192	282
bin	0.0004220736	281
bin	0.000422928	271
bin	0.0004237824	287
bin	0.0004246368	314
bin	0.0004254912	301
bin	0.0004263456	328
bin	0.0004272	5218328
