version 2
run Tornado-21-20120710-00:37:15-25033
attr alg 1
attr buf 8
attr configname Tornado
attr datetime 20120710-00:37:15
attr delta 0.6
attr experiment Tornado
attr ext true
attr inifile altro.ini
attr iterationvars "$buf=8, $ext=true, $ofedge=2, $delta=0.6, $alg=1"
attr iterationvars2 "$buf=8, $ext=true, $ofedge=2, $delta=0.6, $alg=1, $repetition=0"
attr measurement "$buf=8, $ext=true, $ofedge=2, $delta=0.6, $alg=1"
attr network Torus3d_bub
attr ofedge 2
attr processid 25033
attr repetition 0
attr replication #0
attr resultdir altro-results
attr runnumber 21
attr seedset 21

scalar . 	alg 	1
scalar . 	buf 	8
scalar . 	delta 	0.6
scalar . 	ofedge 	2
scalar Torus3d_bub.timer 	#endTime 	0.009953324318621
scalar Torus3d_bub.timer 	#totalHops 	146991331
scalar Torus3d_bub.timer 	#totalPacks 	6291456
scalar Torus3d_bub.timer 	#totalDerouted 	3003297
scalar Torus3d_bub.timer 	#totalOutFlanked 	3003297
scalar Torus3d_bub.timer 	#totalCQRed 	0
scalar Torus3d_bub.timer 	#LB 	0.000786432
scalar Torus3d_bub.timer 	#ratio 	0.079011993865077
statistic Torus3d_bub.timer 	"Hop Times"
field count 6291456
field mean 0.00021698832543516
field stddev 0.00012221994413967
field sum 1365.172501989
field sqrsum 0.39020645526089
field min 6.22095238e-07
field max 0.000470024443743
bin	-INF	0
bin	0	0
bin	7.12e-08	0
bin	1.424e-07	0
bin	2.136e-07	0
bin	2.848e-07	0
bin	3.56e-07	0
bin	4.272e-07	0
bin	4.984e-07	0
bin	5.696e-07	1
bin	6.408e-07	7
bin	7.12e-07	112
bin	7.832e-07	457
bin	8.544e-07	951
bin	9.256e-07	1882
bin	9.968e-07	2427
bin	1.068e-06	3228
bin	1.1392e-06	3734
bin	1.2104e-06	4263
bin	1.2816e-06	5156
bin	1.3528e-06	6048
bin	1.424e-06	6776
bin	1.4952e-06	7527
bin	1.5664e-06	7817
bin	1.6376e-06	8696
bin	1.7088e-06	8841
bin	1.78e-06	8825
bin	1.8512e-06	8489
bin	1.9224e-06	8350
bin	1.9936e-06	7948
bin	2.0648e-06	7704
bin	2.136e-06	7828
bin	2.2072e-06	7788
bin	2.2784e-06	7574
bin	2.3496e-06	7584
bin	2.4208e-06	7699
bin	2.492e-06	7223
bin	2.5632e-06	6980
bin	2.6344e-06	6667
bin	2.7056e-06	6253
bin	2.7768e-06	5997
bin	2.848e-06	5790
bin	2.9192e-06	5514
bin	2.9904e-06	5229
bin	3.0616e-06	5049
bin	3.1328e-06	4834
bin	3.204e-06	4504
bin	3.2752e-06	4365
bin	3.3464e-06	4156
bin	3.4176e-06	4072
bin	3.4888e-06	3826
bin	3.56e-06	3929
bin	3.6312e-06	3769
bin	3.7024e-06	3608
bin	3.7736e-06	3505
bin	3.8448e-06	3517
bin	3.916e-06	3536
bin	3.9872e-06	3356
bin	4.0584e-06	3328
bin	4.1296e-06	3332
bin	4.2008e-06	3298
bin	4.272e-06	3282
bin	4.3432e-06	3243
bin	4.4144e-06	3228
bin	4.4856e-06	3138
bin	4.5568e-06	2901
bin	4.628e-06	2839
bin	4.6992e-06	2824
bin	4.7704e-06	2689
bin	4.8416e-06	2630
bin	4.9128e-06	2499
bin	4.984e-06	2469
bin	5.0552e-06	2356
bin	5.1264e-06	2298
bin	5.1976e-06	2232
bin	5.2688e-06	2267
bin	5.34e-06	2221
bin	5.4112e-06	2240
bin	5.4824e-06	2187
bin	5.5536e-06	2116
bin	5.6248e-06	2098
bin	5.696e-06	2148
bin	5.7672e-06	2059
bin	5.8384e-06	2012
bin	5.9096e-06	1938
bin	5.9808e-06	2001
bin	6.052e-06	1939
bin	6.1232e-06	1887
bin	6.1944e-06	1853
bin	6.2656e-06	1972
bin	6.3368e-06	1866
bin	6.408e-06	1876
bin	6.4792e-06	1797
bin	6.5504e-06	1791
bin	6.6216e-06	1715
bin	6.6928e-06	1741
bin	6.764e-06	1713
bin	6.8352e-06	1595
bin	6.9064e-06	1680
bin	6.9776e-06	1581
bin	7.0488e-06	1489
bin	7.12e-06	1550
bin	7.1912e-06	1578
bin	7.2624e-06	1647
bin	7.3336e-06	1556
bin	7.4048e-06	1544
bin	7.476e-06	1496
bin	7.5472e-06	1512
bin	7.6184e-06	1536
bin	7.6896e-06	1437
bin	7.7608e-06	1423
bin	7.832e-06	1470
bin	7.9032e-06	1516
bin	7.9744e-06	1481
bin	8.0456e-06	1493
bin	8.1168e-06	1450
bin	8.188e-06	1440
bin	8.2592e-06	1406
bin	8.3304e-06	1470
bin	8.4016e-06	1413
bin	8.4728e-06	1426
bin	8.544e-06	1344
bin	8.6152e-06	1318
bin	8.6864e-06	1282
bin	8.7576e-06	1294
bin	8.8288e-06	1331
bin	8.9e-06	1333
bin	8.9712e-06	1293
bin	9.0424e-06	1357
bin	9.1136e-06	1356
bin	9.1848e-06	1251
bin	9.256e-06	1319
bin	9.3272e-06	1278
bin	9.3984e-06	1224
bin	9.4696e-06	1214
bin	9.5408e-06	1245
bin	9.612e-06	1329
bin	9.6832e-06	1312
bin	9.7544e-06	1298
bin	9.8256e-06	1325
bin	9.8968e-06	1288
bin	9.968e-06	1232
bin	1.00392e-05	1244
bin	1.01104e-05	1156
bin	1.01816e-05	1214
bin	1.02528e-05	1244
bin	1.0324e-05	1153
bin	1.03952e-05	1130
bin	1.04664e-05	1142
bin	1.05376e-05	1190
bin	1.06088e-05	1155
bin	1.068e-05	1149
bin	1.07512e-05	1162
bin	1.08224e-05	1064
bin	1.08936e-05	1136
bin	1.09648e-05	1261
bin	1.1036e-05	1183
bin	1.11072e-05	1213
bin	1.11784e-05	1230
bin	1.12496e-05	1142
bin	1.13208e-05	1155
bin	1.1392e-05	1168
bin	1.14632e-05	1110
bin	1.15344e-05	1134
bin	1.16056e-05	1105
bin	1.16768e-05	1100
bin	1.1748e-05	1157
bin	1.18192e-05	1023
bin	1.18904e-05	1026
bin	1.19616e-05	1028
bin	1.20328e-05	1130
bin	1.2104e-05	1060
bin	1.21752e-05	1013
bin	1.22464e-05	1047
bin	1.23176e-05	1018
bin	1.23888e-05	1042
bin	1.246e-05	1099
bin	1.25312e-05	1040
bin	1.26024e-05	1091
bin	1.26736e-05	1127
bin	1.27448e-05	983
bin	1.2816e-05	1021
bin	1.28872e-05	1072
bin	1.29584e-05	1033
bin	1.30296e-05	1078
bin	1.31008e-05	1072
bin	1.3172e-05	1098
bin	1.32432e-05	1070
bin	1.33144e-05	1018
bin	1.33856e-05	1104
bin	1.34568e-05	1061
bin	1.3528e-05	1050
bin	1.35992e-05	1065
bin	1.36704e-05	1032
bin	1.37416e-05	997
bin	1.38128e-05	1049
bin	1.3884e-05	974
bin	1.39552e-05	939
bin	1.40264e-05	1023
bin	1.40976e-05	1041
bin	1.41688e-05	1018
bin	1.424e-05	951
bin	1.43112e-05	976
bin	1.43824e-05	978
bin	1.44536e-05	1051
bin	1.45248e-05	986
bin	1.4596e-05	990
bin	1.46672e-05	1013
bin	1.47384e-05	979
bin	1.48096e-05	970
bin	1.48808e-05	928
bin	1.4952e-05	955
bin	1.50232e-05	990
bin	1.50944e-05	1035
bin	1.51656e-05	994
bin	1.52368e-05	986
bin	1.5308e-05	1020
bin	1.53792e-05	983
bin	1.54504e-05	1031
bin	1.55216e-05	905
bin	1.55928e-05	976
bin	1.5664e-05	938
bin	1.57352e-05	943
bin	1.58064e-05	904
bin	1.58776e-05	934
bin	1.59488e-05	977
bin	1.602e-05	993
bin	1.60912e-05	1013
bin	1.61624e-05	984
bin	1.62336e-05	944
bin	1.63048e-05	950
bin	1.6376e-05	964
bin	1.64472e-05	1013
bin	1.65184e-05	1007
bin	1.65896e-05	930
bin	1.66608e-05	930
bin	1.6732e-05	889
bin	1.68032e-05	925
bin	1.68744e-05	920
bin	1.69456e-05	895
bin	1.70168e-05	940
bin	1.7088e-05	940
bin	1.71592e-05	853
bin	1.72304e-05	893
bin	1.73016e-05	927
bin	1.73728e-05	965
bin	1.7444e-05	968
bin	1.75152e-05	891
bin	1.75864e-05	948
bin	1.76576e-05	997
bin	1.77288e-05	933
bin	1.78e-05	931
bin	1.78712e-05	958
bin	1.79424e-05	933
bin	1.80136e-05	948
bin	1.80848e-05	971
bin	1.8156e-05	994
bin	1.82272e-05	1003
bin	1.82984e-05	918
bin	1.83696e-05	883
bin	1.84408e-05	887
bin	1.8512e-05	935
bin	1.85832e-05	921
bin	1.86544e-05	893
bin	1.87256e-05	905
bin	1.87968e-05	897
bin	1.8868e-05	940
bin	1.89392e-05	913
bin	1.90104e-05	844
bin	1.90816e-05	915
bin	1.91528e-05	919
bin	1.9224e-05	969
bin	1.92952e-05	994
bin	1.93664e-05	1017
bin	1.94376e-05	1033
bin	1.95088e-05	967
bin	1.958e-05	922
bin	1.96512e-05	933
bin	1.97224e-05	929
bin	1.97936e-05	909
bin	1.98648e-05	937
bin	1.9936e-05	932
bin	2.00072e-05	898
bin	2.00784e-05	895
bin	2.01496e-05	924
bin	2.02208e-05	902
bin	2.0292e-05	935
bin	2.03632e-05	950
bin	2.04344e-05	962
bin	2.05056e-05	910
bin	2.05768e-05	861
bin	2.0648e-05	856
bin	2.07192e-05	867
bin	2.07904e-05	924
bin	2.08616e-05	887
bin	2.09328e-05	884
bin	2.1004e-05	922
bin	2.10752e-05	952
bin	2.11464e-05	997
bin	2.12176e-05	921
bin	2.12888e-05	883
bin	2.136e-05	883
bin	2.14312e-05	942
bin	2.15024e-05	899
bin	2.15736e-05	875
bin	2.16448e-05	925
bin	2.1716e-05	911
bin	2.17872e-05	891
bin	2.18584e-05	877
bin	2.19296e-05	880
bin	2.20008e-05	896
bin	2.2072e-05	926
bin	2.21432e-05	842
bin	2.22144e-05	909
bin	2.22856e-05	846
bin	2.23568e-05	887
bin	2.2428e-05	928
bin	2.24992e-05	853
bin	2.25704e-05	899
bin	2.26416e-05	889
bin	2.27128e-05	917
bin	2.2784e-05	859
bin	2.28552e-05	913
bin	2.29264e-05	876
bin	2.29976e-05	875
bin	2.30688e-05	886
bin	2.314e-05	863
bin	2.32112e-05	857
bin	2.32824e-05	855
bin	2.33536e-05	893
bin	2.34248e-05	908
bin	2.3496e-05	862
bin	2.35672e-05	862
bin	2.36384e-05	837
bin	2.37096e-05	858
bin	2.37808e-05	850
bin	2.3852e-05	871
bin	2.39232e-05	851
bin	2.39944e-05	832
bin	2.40656e-05	819
bin	2.41368e-05	912
bin	2.4208e-05	808
bin	2.42792e-05	871
bin	2.43504e-05	874
bin	2.44216e-05	804
bin	2.44928e-05	814
bin	2.4564e-05	779
bin	2.46352e-05	800
bin	2.47064e-05	878
bin	2.47776e-05	882
bin	2.48488e-05	861
bin	2.492e-05	811
bin	2.49912e-05	814
bin	2.50624e-05	852
bin	2.51336e-05	789
bin	2.52048e-05	831
bin	2.5276e-05	792
bin	2.53472e-05	832
bin	2.54184e-05	799
bin	2.54896e-05	806
bin	2.55608e-05	793
bin	2.5632e-05	807
bin	2.57032e-05	822
bin	2.57744e-05	758
bin	2.58456e-05	789
bin	2.59168e-05	860
bin	2.5988e-05	812
bin	2.60592e-05	829
bin	2.61304e-05	746
bin	2.62016e-05	760
bin	2.62728e-05	723
bin	2.6344e-05	787
bin	2.64152e-05	753
bin	2.64864e-05	762
bin	2.65576e-05	850
bin	2.66288e-05	806
bin	2.67e-05	774
bin	2.67712e-05	729
bin	2.68424e-05	745
bin	2.69136e-05	745
bin	2.69848e-05	768
bin	2.7056e-05	756
bin	2.71272e-05	804
bin	2.71984e-05	776
bin	2.72696e-05	770
bin	2.73408e-05	742
bin	2.7412e-05	771
bin	2.74832e-05	757
bin	2.75544e-05	721
bin	2.76256e-05	742
bin	2.76968e-05	725
bin	2.7768e-05	739
bin	2.78392e-05	721
bin	2.79104e-05	721
bin	2.79816e-05	729
bin	2.80528e-05	738
bin	2.8124e-05	718
bin	2.81952e-05	710
bin	2.82664e-05	731
bin	2.83376e-05	749
bin	2.84088e-05	731
bin	2.848e-05	710
bin	2.85512e-05	731
bin	2.86224e-05	732
bin	2.86936e-05	735
bin	2.87648e-05	795
bin	2.8836e-05	752
bin	2.89072e-05	784
bin	2.89784e-05	770
bin	2.90496e-05	819
bin	2.91208e-05	779
bin	2.9192e-05	794
bin	2.92632e-05	790
bin	2.93344e-05	820
bin	2.94056e-05	751
bin	2.94768e-05	735
bin	2.9548e-05	732
bin	2.96192e-05	728
bin	2.96904e-05	703
bin	2.97616e-05	759
bin	2.98328e-05	703
bin	2.9904e-05	754
bin	2.99752e-05	749
bin	3.00464e-05	736
bin	3.01176e-05	724
bin	3.01888e-05	771
bin	3.026e-05	746
bin	3.03312e-05	767
bin	3.04024e-05	738
bin	3.04736e-05	716
bin	3.05448e-05	756
bin	3.0616e-05	769
bin	3.06872e-05	799
bin	3.07584e-05	741
bin	3.08296e-05	765
bin	3.09008e-05	752
bin	3.0972e-05	727
bin	3.10432e-05	807
bin	3.11144e-05	752
bin	3.11856e-05	789
bin	3.12568e-05	766
bin	3.1328e-05	780
bin	3.13992e-05	695
bin	3.14704e-05	760
bin	3.15416e-05	725
bin	3.16128e-05	717
bin	3.1684e-05	743
bin	3.17552e-05	696
bin	3.18264e-05	687
bin	3.18976e-05	783
bin	3.19688e-05	787
bin	3.204e-05	757
bin	3.21112e-05	734
bin	3.21824e-05	723
bin	3.22536e-05	673
bin	3.23248e-05	675
bin	3.2396e-05	727
bin	3.24672e-05	719
bin	3.25384e-05	721
bin	3.26096e-05	777
bin	3.26808e-05	752
bin	3.2752e-05	755
bin	3.28232e-05	774
bin	3.28944e-05	755
bin	3.29656e-05	792
bin	3.30368e-05	748
bin	3.3108e-05	728
bin	3.31792e-05	772
bin	3.32504e-05	746
bin	3.33216e-05	772
bin	3.33928e-05	705
bin	3.3464e-05	731
bin	3.35352e-05	680
bin	3.36064e-05	691
bin	3.36776e-05	729
bin	3.37488e-05	725
bin	3.382e-05	667
bin	3.38912e-05	612
bin	3.39624e-05	635
bin	3.40336e-05	688
bin	3.41048e-05	702
bin	3.4176e-05	692
bin	3.42472e-05	688
bin	3.43184e-05	699
bin	3.43896e-05	738
bin	3.44608e-05	782
bin	3.4532e-05	797
bin	3.46032e-05	770
bin	3.46744e-05	765
bin	3.47456e-05	790
bin	3.48168e-05	760
bin	3.4888e-05	742
bin	3.49592e-05	695
bin	3.50304e-05	730
bin	3.51016e-05	703
bin	3.51728e-05	786
bin	3.5244e-05	695
bin	3.53152e-05	682
bin	3.53864e-05	689
bin	3.54576e-05	680
bin	3.55288e-05	675
bin	3.56e-05	5567584
statistic Torus3d_bub.timer 	"Life Times"
field count 6291456
field mean 0.0050366492326602
field stddev 0.0027880790131728
field sum 31687.857034715
field sqrsum 208.50652012456
field min 1.3063999999e-05
field max 0.009870513318621
bin	-INF	0
bin	0	0
bin	8.544e-07	0
bin	1.7088e-06	0
bin	2.5632e-06	0
bin	3.4176e-06	0
bin	4.272e-06	0
bin	5.1264e-06	0
bin	5.9808e-06	0
bin	6.8352e-06	0
bin	7.6896e-06	0
bin	8.544e-06	0
bin	9.3984e-06	0
bin	1.02528e-05	0
bin	1.11072e-05	0
bin	1.19616e-05	0
bin	1.2816e-05	1
bin	1.36704e-05	3
bin	1.45248e-05	7
bin	1.53792e-05	55
bin	1.62336e-05	160
bin	1.7088e-05	177
bin	1.79424e-05	141
bin	1.87968e-05	280
bin	1.96512e-05	555
bin	2.05056e-05	633
bin	2.136e-05	693
bin	2.22144e-05	1022
bin	2.30688e-05	1155
bin	2.39232e-05	1284
bin	2.47776e-05	1476
bin	2.5632e-05	1769
bin	2.64864e-05	1828
bin	2.73408e-05	2085
bin	2.81952e-05	2207
bin	2.90496e-05	2508
bin	2.9904e-05	2471
bin	3.07584e-05	2803
bin	3.16128e-05	2971
bin	3.24672e-05	2958
bin	3.33216e-05	3148
bin	3.4176e-05	3402
bin	3.50304e-05	3596
bin	3.58848e-05	3687
bin	3.67392e-05	3827
bin	3.75936e-05	4203
bin	3.8448e-05	4129
bin	3.93024e-05	4312
bin	4.01568e-05	4530
bin	4.10112e-05	4895
bin	4.18656e-05	4879
bin	4.272e-05	4960
bin	4.35744e-05	5057
bin	4.44288e-05	5145
bin	4.52832e-05	5071
bin	4.61376e-05	5027
bin	4.6992e-05	5098
bin	4.78464e-05	4978
bin	4.87008e-05	4664
bin	4.95552e-05	4740
bin	5.04096e-05	4850
bin	5.1264e-05	4624
bin	5.21184e-05	4533
bin	5.29728e-05	4224
bin	5.38272e-05	4342
bin	5.46816e-05	4124
bin	5.5536e-05	4030
bin	5.63904e-05	3887
bin	5.72448e-05	3596
bin	5.80992e-05	3573
bin	5.89536e-05	3541
bin	5.9808e-05	3408
bin	6.06624e-05	3354
bin	6.15168e-05	3219
bin	6.23712e-05	3047
bin	6.32256e-05	2923
bin	6.408e-05	2920
bin	6.49344e-05	2710
bin	6.57888e-05	2716
bin	6.66432e-05	2605
bin	6.74976e-05	2609
bin	6.8352e-05	2532
bin	6.92064e-05	2406
bin	7.00608e-05	2311
bin	7.09152e-05	2314
bin	7.17696e-05	2305
bin	7.2624e-05	2322
bin	7.34784e-05	2219
bin	7.43328e-05	2298
bin	7.51872e-05	2186
bin	7.60416e-05	2261
bin	7.6896e-05	2252
bin	7.77504e-05	2196
bin	7.86048e-05	2164
bin	7.94592e-05	2122
bin	8.03136e-05	2136
bin	8.1168e-05	2158
bin	8.20224e-05	2191
bin	8.28768e-05	2140
bin	8.37312e-05	2097
bin	8.45856e-05	2078
bin	8.544e-05	2054
bin	8.62944e-05	2010
bin	8.71488e-05	2063
bin	8.80032e-05	1923
bin	8.88576e-05	2069
bin	8.9712e-05	1967
bin	9.05664e-05	1884
bin	9.14208e-05	1923
bin	9.22752e-05	1930
bin	9.31296e-05	1929
bin	9.3984e-05	1859
bin	9.48384e-05	1869
bin	9.56928e-05	1703
bin	9.65472e-05	1655
bin	9.74016e-05	1659
bin	9.8256e-05	1663
bin	9.91104e-05	1555
bin	9.99648e-05	1546
bin	0.0001008192	1577
bin	0.0001016736	1483
bin	0.000102528	1489
bin	0.0001033824	1390
bin	0.0001042368	1386
bin	0.0001050912	1383
bin	0.0001059456	1371
bin	0.0001068	1387
bin	0.0001076544	1344
bin	0.0001085088	1292
bin	0.0001093632	1319
bin	0.0001102176	1332
bin	0.000111072	1306
bin	0.0001119264	1325
bin	0.0001127808	1243
bin	0.0001136352	1300
bin	0.0001144896	1284
bin	0.000115344	1291
bin	0.0001161984	1297
bin	0.0001170528	1230
bin	0.0001179072	1196
bin	0.0001187616	1227
bin	0.000119616	1294
bin	0.0001204704	1187
bin	0.0001213248	1202
bin	0.0001221792	1220
bin	0.0001230336	1182
bin	0.000123888	1141
bin	0.0001247424	1180
bin	0.0001255968	1166
bin	0.0001264512	1165
bin	0.0001273056	1151
bin	0.00012816	1114
bin	0.0001290144	1175
bin	0.0001298688	1089
bin	0.0001307232	1064
bin	0.0001315776	1110
bin	0.000132432	1145
bin	0.0001332864	1044
bin	0.0001341408	1083
bin	0.0001349952	1092
bin	0.0001358496	1021
bin	0.000136704	996
bin	0.0001375584	986
bin	0.0001384128	960
bin	0.0001392672	1017
bin	0.0001401216	1020
bin	0.000140976	989
bin	0.0001418304	997
bin	0.0001426848	951
bin	0.0001435392	927
bin	0.0001443936	949
bin	0.000145248	938
bin	0.0001461024	939
bin	0.0001469568	869
bin	0.0001478112	900
bin	0.0001486656	890
bin	0.00014952	865
bin	0.0001503744	956
bin	0.0001512288	917
bin	0.0001520832	946
bin	0.0001529376	869
bin	0.000153792	897
bin	0.0001546464	872
bin	0.0001555008	893
bin	0.0001563552	877
bin	0.0001572096	897
bin	0.000158064	845
bin	0.0001589184	828
bin	0.0001597728	859
bin	0.0001606272	834
bin	0.0001614816	832
bin	0.000162336	836
bin	0.0001631904	819
bin	0.0001640448	854
bin	0.0001648992	812
bin	0.0001657536	845
bin	0.000166608	912
bin	0.0001674624	852
bin	0.0001683168	831
bin	0.0001691712	788
bin	0.0001700256	799
bin	0.00017088	804
bin	0.0001717344	796
bin	0.0001725888	811
bin	0.0001734432	758
bin	0.0001742976	851
bin	0.000175152	784
bin	0.0001760064	789
bin	0.0001768608	760
bin	0.0001777152	766
bin	0.0001785696	755
bin	0.000179424	726
bin	0.0001802784	766
bin	0.0001811328	748
bin	0.0001819872	692
bin	0.0001828416	679
bin	0.000183696	723
bin	0.0001845504	711
bin	0.0001854048	754
bin	0.0001862592	713
bin	0.0001871136	747
bin	0.000187968	711
bin	0.0001888224	725
bin	0.0001896768	751
bin	0.0001905312	752
bin	0.0001913856	745
bin	0.00019224	702
bin	0.0001930944	707
bin	0.0001939488	663
bin	0.0001948032	717
bin	0.0001956576	706
bin	0.000196512	720
bin	0.0001973664	643
bin	0.0001982208	708
bin	0.0001990752	692
bin	0.0001999296	649
bin	0.000200784	677
bin	0.0002016384	684
bin	0.0002024928	706
bin	0.0002033472	672
bin	0.0002042016	720
bin	0.000205056	693
bin	0.0002059104	689
bin	0.0002067648	688
bin	0.0002076192	686
bin	0.0002084736	686
bin	0.000209328	687
bin	0.0002101824	668
bin	0.0002110368	696
bin	0.0002118912	663
bin	0.0002127456	658
bin	0.0002136	642
bin	0.0002144544	676
bin	0.0002153088	636
bin	0.0002161632	636
bin	0.0002170176	635
bin	0.000217872	630
bin	0.0002187264	620
bin	0.0002195808	574
bin	0.0002204352	602
bin	0.0002212896	606
bin	0.000222144	608
bin	0.0002229984	611
bin	0.0002238528	630
bin	0.0002247072	620
bin	0.0002255616	604
bin	0.000226416	589
bin	0.0002272704	624
bin	0.0002281248	592
bin	0.0002289792	656
bin	0.0002298336	676
bin	0.000230688	673
bin	0.0002315424	689
bin	0.0002323968	650
bin	0.0002332512	648
bin	0.0002341056	641
bin	0.00023496	671
bin	0.0002358144	665
bin	0.0002366688	621
bin	0.0002375232	596
bin	0.0002383776	579
bin	0.000239232	602
bin	0.0002400864	597
bin	0.0002409408	607
bin	0.0002417952	605
bin	0.0002426496	648
bin	0.000243504	609
bin	0.0002443584	599
bin	0.0002452128	595
bin	0.0002460672	607
bin	0.0002469216	627
bin	0.000247776	580
bin	0.0002486304	573
bin	0.0002494848	589
bin	0.0002503392	607
bin	0.0002511936	585
bin	0.000252048	629
bin	0.0002529024	612
bin	0.0002537568	608
bin	0.0002546112	600
bin	0.0002554656	561
bin	0.00025632	586
bin	0.0002571744	633
bin	0.0002580288	555
bin	0.0002588832	559
bin	0.0002597376	562
bin	0.000260592	594
bin	0.0002614464	543
bin	0.0002623008	577
bin	0.0002631552	531
bin	0.0002640096	586
bin	0.000264864	554
bin	0.0002657184	636
bin	0.0002665728	574
bin	0.0002674272	542
bin	0.0002682816	562
bin	0.000269136	596
bin	0.0002699904	587
bin	0.0002708448	565
bin	0.0002716992	525
bin	0.0002725536	535
bin	0.000273408	600
bin	0.0002742624	585
bin	0.0002751168	545
bin	0.0002759712	563
bin	0.0002768256	592
bin	0.00027768	589
bin	0.0002785344	570
bin	0.0002793888	542
bin	0.0002802432	557
bin	0.0002810976	571
bin	0.000281952	569
bin	0.0002828064	556
bin	0.0002836608	614
bin	0.0002845152	573
bin	0.0002853696	598
bin	0.000286224	626
bin	0.0002870784	564
bin	0.0002879328	566
bin	0.0002887872	582
bin	0.0002896416	556
bin	0.000290496	585
bin	0.0002913504	544
bin	0.0002922048	538
bin	0.0002930592	533
bin	0.0002939136	580
bin	0.000294768	572
bin	0.0002956224	552
bin	0.0002964768	574
bin	0.0002973312	576
bin	0.0002981856	536
bin	0.00029904	550
bin	0.0002998944	528
bin	0.0003007488	545
bin	0.0003016032	579
bin	0.0003024576	590
bin	0.000303312	521
bin	0.0003041664	553
bin	0.0003050208	559
bin	0.0003058752	535
bin	0.0003067296	551
bin	0.000307584	528
bin	0.0003084384	546
bin	0.0003092928	508
bin	0.0003101472	528
bin	0.0003110016	497
bin	0.000311856	466
bin	0.0003127104	508
bin	0.0003135648	532
bin	0.0003144192	536
bin	0.0003152736	474
bin	0.000316128	514
bin	0.0003169824	541
bin	0.0003178368	551
bin	0.0003186912	489
bin	0.0003195456	506
bin	0.0003204	499
bin	0.0003212544	520
bin	0.0003221088	523
bin	0.0003229632	509
bin	0.0003238176	508
bin	0.000324672	529
bin	0.0003255264	559
bin	0.0003263808	480
bin	0.0003272352	570
bin	0.0003280896	533
bin	0.000328944	502
bin	0.0003297984	540
bin	0.0003306528	552
bin	0.0003315072	507
bin	0.0003323616	491
bin	0.000333216	518
bin	0.0003340704	521
bin	0.0003349248	520
bin	0.0003357792	547
bin	0.0003366336	539
bin	0.000337488	538
bin	0.0003383424	561
bin	0.0003391968	560
bin	0.0003400512	507
bin	0.0003409056	505
bin	0.00034176	533
bin	0.0003426144	543
bin	0.0003434688	509
bin	0.0003443232	501
bin	0.0003451776	558
bin	0.000346032	546
bin	0.0003468864	535
bin	0.0003477408	499
bin	0.0003485952	551
bin	0.0003494496	481
bin	0.000350304	499
bin	0.0003511584	469
bin	0.0003520128	452
bin	0.0003528672	507
bin	0.0003537216	504
bin	0.000354576	499
bin	0.0003554304	502
bin	0.0003562848	423
bin	0.0003571392	480
bin	0.0003579936	475
bin	0.000358848	499
bin	0.0003597024	466
bin	0.0003605568	438
bin	0.0003614112	467
bin	0.0003622656	473
bin	0.00036312	464
bin	0.0003639744	475
bin	0.0003648288	479
bin	0.0003656832	523
bin	0.0003665376	496
bin	0.000367392	503
bin	0.0003682464	464
bin	0.0003691008	500
bin	0.0003699552	508
bin	0.0003708096	535
bin	0.000371664	499
bin	0.0003725184	509
bin	0.0003733728	522
bin	0.0003742272	490
bin	0.0003750816	485
bin	0.000375936	510
bin	0.0003767904	544
bin	0.0003776448	499
bin	0.0003784992	512
bin	0.0003793536	526
bin	0.000380208	521
bin	0.0003810624	520
bin	0.0003819168	507
bin	0.0003827712	501
bin	0.0003836256	475
bin	0.00038448	463
bin	0.0003853344	485
bin	0.0003861888	489
bin	0.0003870432	497
bin	0.0003878976	474
bin	0.000388752	467
bin	0.0003896064	487
bin	0.0003904608	507
bin	0.0003913152	485
bin	0.0003921696	488
bin	0.000393024	469
bin	0.0003938784	492
bin	0.0003947328	449
bin	0.0003955872	490
bin	0.0003964416	508
bin	0.000397296	537
bin	0.0003981504	506
bin	0.0003990048	480
bin	0.0003998592	437
bin	0.0004007136	478
bin	0.000401568	488
bin	0.0004024224	523
bin	0.0004032768	500
bin	0.0004041312	476
bin	0.0004049856	528
bin	0.00040584	502
bin	0.0004066944	505
bin	0.0004075488	510
bin	0.0004084032	522
bin	0.0004092576	504
bin	0.000410112	488
bin	0.0004109664	512
bin	0.0004118208	490
bin	0.0004126752	485
bin	0.0004135296	481
bin	0.000414384	494
bin	0.0004152384	486
bin	0.0004160928	512
bin	0.0004169472	517
bin	0.0004178016	498
bin	0.000418656	523
bin	0.0004195104	499
bin	0.0004203648	468
bin	0.0004212192	471
bin	0.0004220736	512
bin	0.000422928	511
bin	0.0004237824	508
bin	0.0004246368	501
bin	0.0004254912	510
bin	0.0004263456	512
bin	0.0004272	5760422
