version 2
run Tornado-25-20120710-01:32:59-25046
attr alg 1
attr buf 8
attr configname Tornado
attr datetime 20120710-01:32:59
attr delta 0.2
attr experiment Tornado
attr ext false
attr inifile altro.ini
attr iterationvars "$buf=8, $ext=false, $ofedge=1, $delta=0.2, $alg=1"
attr iterationvars2 "$buf=8, $ext=false, $ofedge=1, $delta=0.2, $alg=1, $repetition=0"
attr measurement "$buf=8, $ext=false, $ofedge=1, $delta=0.2, $alg=1"
attr network Torus3d_bub
attr ofedge 1
attr processid 25046
attr repetition 0
attr replication #0
attr resultdir altro-results
attr runnumber 25
attr seedset 25

scalar . 	alg 	1
scalar . 	buf 	8
scalar . 	delta 	0.2
scalar . 	ofedge 	1
scalar Torus3d_bub.timer 	#endTime 	0.01695809097402
scalar Torus3d_bub.timer 	#totalHops 	155470894
scalar Torus3d_bub.timer 	#totalPacks 	6291456
scalar Torus3d_bub.timer 	#totalDerouted 	4809966
scalar Torus3d_bub.timer 	#totalOutFlanked 	4809966
scalar Torus3d_bub.timer 	#totalCQRed 	0
scalar Torus3d_bub.timer 	#LB 	0.000786432
scalar Torus3d_bub.timer 	#ratio 	0.046375031317194
statistic Torus3d_bub.timer 	"Hop Times"
field count 6291456
field mean 0.00033276667322469
field stddev 0.00020839783146936
field sum 2093.5868828595
field sqrsum 0.96991166951926
field min 6.06174603e-07
field max 0.000800815428571
bin	-INF	0
bin	0	0
bin	7.12e-08	0
bin	1.424e-07	0
bin	2.136e-07	0
bin	2.848e-07	0
bin	3.56e-07	0
bin	4.272e-07	0
bin	4.984e-07	0
bin	5.696e-07	2
bin	6.408e-07	2
bin	7.12e-07	13
bin	7.832e-07	30
bin	8.544e-07	63
bin	9.256e-07	100
bin	9.968e-07	150
bin	1.068e-06	215
bin	1.1392e-06	352
bin	1.2104e-06	609
bin	1.2816e-06	900
bin	1.3528e-06	1284
bin	1.424e-06	1670
bin	1.4952e-06	2130
bin	1.5664e-06	3154
bin	1.6376e-06	3248
bin	1.7088e-06	4174
bin	1.78e-06	4517
bin	1.8512e-06	4636
bin	1.9224e-06	5010
bin	1.9936e-06	5334
bin	2.0648e-06	6160
bin	2.136e-06	6943
bin	2.2072e-06	7833
bin	2.2784e-06	8546
bin	2.3496e-06	8984
bin	2.4208e-06	9400
bin	2.492e-06	9762
bin	2.5632e-06	10104
bin	2.6344e-06	10345
bin	2.7056e-06	10698
bin	2.7768e-06	10809
bin	2.848e-06	10983
bin	2.9192e-06	11391
bin	2.9904e-06	11924
bin	3.0616e-06	12225
bin	3.1328e-06	12651
bin	3.204e-06	12780
bin	3.2752e-06	13349
bin	3.3464e-06	13675
bin	3.4176e-06	13941
bin	3.4888e-06	14321
bin	3.56e-06	14799
bin	3.6312e-06	15087
bin	3.7024e-06	15583
bin	3.7736e-06	15900
bin	3.8448e-06	16275
bin	3.916e-06	16705
bin	3.9872e-06	17151
bin	4.0584e-06	17340
bin	4.1296e-06	18089
bin	4.2008e-06	18195
bin	4.272e-06	18459
bin	4.3432e-06	18807
bin	4.4144e-06	18697
bin	4.4856e-06	18994
bin	4.5568e-06	19215
bin	4.628e-06	19380
bin	4.6992e-06	19163
bin	4.7704e-06	18627
bin	4.8416e-06	18285
bin	4.9128e-06	17446
bin	4.984e-06	16303
bin	5.0552e-06	15204
bin	5.1264e-06	14089
bin	5.1976e-06	12962
bin	5.2688e-06	12318
bin	5.34e-06	11653
bin	5.4112e-06	11522
bin	5.4824e-06	10991
bin	5.5536e-06	11070
bin	5.6248e-06	10460
bin	5.696e-06	10161
bin	5.7672e-06	9702
bin	5.8384e-06	9375
bin	5.9096e-06	7988
bin	5.9808e-06	7120
bin	6.052e-06	6575
bin	6.1232e-06	6002
bin	6.1944e-06	5032
bin	6.2656e-06	4594
bin	6.3368e-06	4048
bin	6.408e-06	3675
bin	6.4792e-06	3303
bin	6.5504e-06	2953
bin	6.6216e-06	2862
bin	6.6928e-06	2755
bin	6.764e-06	2665
bin	6.8352e-06	2861
bin	6.9064e-06	2843
bin	6.9776e-06	2845
bin	7.0488e-06	2940
bin	7.12e-06	2878
bin	7.1912e-06	2859
bin	7.2624e-06	2901
bin	7.3336e-06	2822
bin	7.4048e-06	2740
bin	7.476e-06	2912
bin	7.5472e-06	2898
bin	7.6184e-06	2881
bin	7.6896e-06	2888
bin	7.7608e-06	2862
bin	7.832e-06	2951
bin	7.9032e-06	3125
bin	7.9744e-06	3068
bin	8.0456e-06	2991
bin	8.1168e-06	3095
bin	8.188e-06	3177
bin	8.2592e-06	3136
bin	8.3304e-06	3126
bin	8.4016e-06	3070
bin	8.4728e-06	3188
bin	8.544e-06	3105
bin	8.6152e-06	3170
bin	8.6864e-06	3011
bin	8.7576e-06	3141
bin	8.8288e-06	3225
bin	8.9e-06	3275
bin	8.9712e-06	3446
bin	9.0424e-06	3444
bin	9.1136e-06	3368
bin	9.1848e-06	3558
bin	9.256e-06	3605
bin	9.3272e-06	3504
bin	9.3984e-06	3518
bin	9.4696e-06	3389
bin	9.5408e-06	3620
bin	9.612e-06	3378
bin	9.6832e-06	3223
bin	9.7544e-06	3170
bin	9.8256e-06	2928
bin	9.8968e-06	2833
bin	9.968e-06	2634
bin	1.00392e-05	2387
bin	1.01104e-05	2118
bin	1.01816e-05	2018
bin	1.02528e-05	1935
bin	1.0324e-05	1830
bin	1.03952e-05	1747
bin	1.04664e-05	1716
bin	1.05376e-05	1655
bin	1.06088e-05	1697
bin	1.068e-05	1694
bin	1.07512e-05	1729
bin	1.08224e-05	1571
bin	1.08936e-05	1677
bin	1.09648e-05	1687
bin	1.1036e-05	1708
bin	1.11072e-05	1667
bin	1.11784e-05	1681
bin	1.12496e-05	1667
bin	1.13208e-05	1804
bin	1.1392e-05	1780
bin	1.14632e-05	1858
bin	1.15344e-05	1807
bin	1.16056e-05	1823
bin	1.16768e-05	1917
bin	1.1748e-05	1828
bin	1.18192e-05	1801
bin	1.18904e-05	1770
bin	1.19616e-05	1685
bin	1.20328e-05	1622
bin	1.2104e-05	1492
bin	1.21752e-05	1434
bin	1.22464e-05	1368
bin	1.23176e-05	1264
bin	1.23888e-05	1280
bin	1.246e-05	1297
bin	1.25312e-05	1185
bin	1.26024e-05	1228
bin	1.26736e-05	1198
bin	1.27448e-05	1209
bin	1.2816e-05	1265
bin	1.28872e-05	1295
bin	1.29584e-05	1135
bin	1.30296e-05	1217
bin	1.31008e-05	1226
bin	1.3172e-05	1224
bin	1.32432e-05	1300
bin	1.33144e-05	1292
bin	1.33856e-05	1169
bin	1.34568e-05	1224
bin	1.3528e-05	1202
bin	1.35992e-05	1301
bin	1.36704e-05	1313
bin	1.37416e-05	1327
bin	1.38128e-05	1263
bin	1.3884e-05	1206
bin	1.39552e-05	1286
bin	1.40264e-05	1237
bin	1.40976e-05	1319
bin	1.41688e-05	1377
bin	1.424e-05	1313
bin	1.43112e-05	1256
bin	1.43824e-05	1202
bin	1.44536e-05	1301
bin	1.45248e-05	1172
bin	1.4596e-05	1171
bin	1.46672e-05	1061
bin	1.47384e-05	1024
bin	1.48096e-05	1024
bin	1.48808e-05	1026
bin	1.4952e-05	989
bin	1.50232e-05	927
bin	1.50944e-05	857
bin	1.51656e-05	835
bin	1.52368e-05	797
bin	1.5308e-05	809
bin	1.53792e-05	817
bin	1.54504e-05	783
bin	1.55216e-05	774
bin	1.55928e-05	774
bin	1.5664e-05	751
bin	1.57352e-05	760
bin	1.58064e-05	778
bin	1.58776e-05	717
bin	1.59488e-05	758
bin	1.602e-05	685
bin	1.60912e-05	719
bin	1.61624e-05	776
bin	1.62336e-05	741
bin	1.63048e-05	738
bin	1.6376e-05	742
bin	1.64472e-05	677
bin	1.65184e-05	736
bin	1.65896e-05	721
bin	1.66608e-05	717
bin	1.6732e-05	749
bin	1.68032e-05	807
bin	1.68744e-05	795
bin	1.69456e-05	750
bin	1.70168e-05	748
bin	1.7088e-05	837
bin	1.71592e-05	869
bin	1.72304e-05	842
bin	1.73016e-05	856
bin	1.73728e-05	852
bin	1.7444e-05	847
bin	1.75152e-05	856
bin	1.75864e-05	863
bin	1.76576e-05	871
bin	1.77288e-05	873
bin	1.78e-05	881
bin	1.78712e-05	869
bin	1.79424e-05	873
bin	1.80136e-05	777
bin	1.80848e-05	751
bin	1.8156e-05	732
bin	1.82272e-05	783
bin	1.82984e-05	761
bin	1.83696e-05	750
bin	1.84408e-05	783
bin	1.8512e-05	766
bin	1.85832e-05	746
bin	1.86544e-05	784
bin	1.87256e-05	831
bin	1.87968e-05	797
bin	1.8868e-05	753
bin	1.89392e-05	844
bin	1.90104e-05	729
bin	1.90816e-05	728
bin	1.91528e-05	721
bin	1.9224e-05	628
bin	1.92952e-05	667
bin	1.93664e-05	628
bin	1.94376e-05	627
bin	1.95088e-05	554
bin	1.958e-05	579
bin	1.96512e-05	572
bin	1.97224e-05	603
bin	1.97936e-05	586
bin	1.98648e-05	599
bin	1.9936e-05	538
bin	2.00072e-05	573
bin	2.00784e-05	500
bin	2.01496e-05	517
bin	2.02208e-05	546
bin	2.0292e-05	523
bin	2.03632e-05	498
bin	2.04344e-05	462
bin	2.05056e-05	481
bin	2.05768e-05	502
bin	2.0648e-05	473
bin	2.07192e-05	434
bin	2.07904e-05	415
bin	2.08616e-05	440
bin	2.09328e-05	490
bin	2.1004e-05	450
bin	2.10752e-05	458
bin	2.11464e-05	420
bin	2.12176e-05	442
bin	2.12888e-05	512
bin	2.136e-05	482
bin	2.14312e-05	480
bin	2.15024e-05	458
bin	2.15736e-05	521
bin	2.16448e-05	506
bin	2.1716e-05	519
bin	2.17872e-05	466
bin	2.18584e-05	496
bin	2.19296e-05	512
bin	2.20008e-05	521
bin	2.2072e-05	527
bin	2.21432e-05	506
bin	2.22144e-05	551
bin	2.22856e-05	510
bin	2.23568e-05	505
bin	2.2428e-05	472
bin	2.24992e-05	490
bin	2.25704e-05	539
bin	2.26416e-05	561
bin	2.27128e-05	573
bin	2.2784e-05	549
bin	2.28552e-05	539
bin	2.29264e-05	591
bin	2.29976e-05	536
bin	2.30688e-05	543
bin	2.314e-05	594
bin	2.32112e-05	543
bin	2.32824e-05	566
bin	2.33536e-05	544
bin	2.34248e-05	557
bin	2.3496e-05	536
bin	2.35672e-05	552
bin	2.36384e-05	549
bin	2.37096e-05	564
bin	2.37808e-05	511
bin	2.3852e-05	526
bin	2.39232e-05	511
bin	2.39944e-05	504
bin	2.40656e-05	443
bin	2.41368e-05	445
bin	2.4208e-05	430
bin	2.42792e-05	431
bin	2.43504e-05	379
bin	2.44216e-05	452
bin	2.44928e-05	430
bin	2.4564e-05	438
bin	2.46352e-05	425
bin	2.47064e-05	374
bin	2.47776e-05	368
bin	2.48488e-05	375
bin	2.492e-05	391
bin	2.49912e-05	371
bin	2.50624e-05	342
bin	2.51336e-05	309
bin	2.52048e-05	314
bin	2.5276e-05	348
bin	2.53472e-05	348
bin	2.54184e-05	348
bin	2.54896e-05	300
bin	2.55608e-05	324
bin	2.5632e-05	321
bin	2.57032e-05	303
bin	2.57744e-05	296
bin	2.58456e-05	306
bin	2.59168e-05	318
bin	2.5988e-05	341
bin	2.60592e-05	358
bin	2.61304e-05	391
bin	2.62016e-05	362
bin	2.62728e-05	345
bin	2.6344e-05	369
bin	2.64152e-05	366
bin	2.64864e-05	373
bin	2.65576e-05	336
bin	2.66288e-05	357
bin	2.67e-05	367
bin	2.67712e-05	363
bin	2.68424e-05	352
bin	2.69136e-05	363
bin	2.69848e-05	380
bin	2.7056e-05	358
bin	2.71272e-05	402
bin	2.71984e-05	379
bin	2.72696e-05	386
bin	2.73408e-05	390
bin	2.7412e-05	388
bin	2.74832e-05	373
bin	2.75544e-05	398
bin	2.76256e-05	457
bin	2.76968e-05	446
bin	2.7768e-05	439
bin	2.78392e-05	408
bin	2.79104e-05	427
bin	2.79816e-05	382
bin	2.80528e-05	413
bin	2.8124e-05	451
bin	2.81952e-05	410
bin	2.82664e-05	380
bin	2.83376e-05	434
bin	2.84088e-05	395
bin	2.848e-05	459
bin	2.85512e-05	398
bin	2.86224e-05	400
bin	2.86936e-05	397
bin	2.87648e-05	363
bin	2.8836e-05	317
bin	2.89072e-05	310
bin	2.89784e-05	336
bin	2.90496e-05	290
bin	2.91208e-05	330
bin	2.9192e-05	358
bin	2.92632e-05	375
bin	2.93344e-05	370
bin	2.94056e-05	352
bin	2.94768e-05	382
bin	2.9548e-05	377
bin	2.96192e-05	367
bin	2.96904e-05	379
bin	2.97616e-05	318
bin	2.98328e-05	302
bin	2.9904e-05	312
bin	2.99752e-05	293
bin	3.00464e-05	304
bin	3.01176e-05	267
bin	3.01888e-05	259
bin	3.026e-05	231
bin	3.03312e-05	253
bin	3.04024e-05	272
bin	3.04736e-05	264
bin	3.05448e-05	244
bin	3.0616e-05	259
bin	3.06872e-05	326
bin	3.07584e-05	297
bin	3.08296e-05	277
bin	3.09008e-05	236
bin	3.0972e-05	288
bin	3.10432e-05	292
bin	3.11144e-05	277
bin	3.11856e-05	277
bin	3.12568e-05	277
bin	3.1328e-05	277
bin	3.13992e-05	289
bin	3.14704e-05	280
bin	3.15416e-05	269
bin	3.16128e-05	289
bin	3.1684e-05	264
bin	3.17552e-05	282
bin	3.18264e-05	280
bin	3.18976e-05	292
bin	3.19688e-05	301
bin	3.204e-05	294
bin	3.21112e-05	316
bin	3.21824e-05	344
bin	3.22536e-05	301
bin	3.23248e-05	277
bin	3.2396e-05	330
bin	3.24672e-05	277
bin	3.25384e-05	298
bin	3.26096e-05	311
bin	3.26808e-05	293
bin	3.2752e-05	274
bin	3.28232e-05	305
bin	3.28944e-05	350
bin	3.29656e-05	361
bin	3.30368e-05	336
bin	3.3108e-05	338
bin	3.31792e-05	332
bin	3.32504e-05	271
bin	3.33216e-05	302
bin	3.33928e-05	310
bin	3.3464e-05	240
bin	3.35352e-05	292
bin	3.36064e-05	297
bin	3.36776e-05	252
bin	3.37488e-05	276
bin	3.382e-05	291
bin	3.38912e-05	309
bin	3.39624e-05	268
bin	3.40336e-05	288
bin	3.41048e-05	282
bin	3.4176e-05	296
bin	3.42472e-05	265
bin	3.43184e-05	299
bin	3.43896e-05	308
bin	3.44608e-05	306
bin	3.4532e-05	255
bin	3.46032e-05	282
bin	3.46744e-05	296
bin	3.47456e-05	270
bin	3.48168e-05	250
bin	3.4888e-05	241
bin	3.49592e-05	243
bin	3.50304e-05	250
bin	3.51016e-05	251
bin	3.51728e-05	265
bin	3.5244e-05	249
bin	3.53152e-05	241
bin	3.53864e-05	226
bin	3.54576e-05	249
bin	3.55288e-05	220
bin	3.56e-05	5081864
statistic Torus3d_bub.timer 	"Life Times"
field count 6291456
field mean 0.0081376497448212
field stddev 0.0049097534190684
field sum 51197.665312954
field sqrsum 568.28846045259
field min 1.2729666666e-05
field max 0.016817123999999
bin	-INF	0
bin	0	0
bin	8.544e-07	0
bin	1.7088e-06	0
bin	2.5632e-06	0
bin	3.4176e-06	0
bin	4.272e-06	0
bin	5.1264e-06	0
bin	5.9808e-06	0
bin	6.8352e-06	0
bin	7.6896e-06	0
bin	8.544e-06	0
bin	9.3984e-06	0
bin	1.02528e-05	0
bin	1.11072e-05	0
bin	1.19616e-05	1
bin	1.2816e-05	2
bin	1.36704e-05	1
bin	1.45248e-05	1
bin	1.53792e-05	8
bin	1.62336e-05	11
bin	1.7088e-05	23
bin	1.79424e-05	36
bin	1.87968e-05	38
bin	1.96512e-05	56
bin	2.05056e-05	58
bin	2.136e-05	77
bin	2.22144e-05	127
bin	2.30688e-05	115
bin	2.39232e-05	143
bin	2.47776e-05	260
bin	2.5632e-05	335
bin	2.64864e-05	382
bin	2.73408e-05	571
bin	2.81952e-05	631
bin	2.90496e-05	717
bin	2.9904e-05	890
bin	3.07584e-05	949
bin	3.16128e-05	1003
bin	3.24672e-05	1744
bin	3.33216e-05	1359
bin	3.4176e-05	1327
bin	3.50304e-05	1630
bin	3.58848e-05	1909
bin	3.67392e-05	1954
bin	3.75936e-05	2107
bin	3.8448e-05	1908
bin	3.93024e-05	1863
bin	4.01568e-05	2167
bin	4.10112e-05	2044
bin	4.18656e-05	2084
bin	4.272e-05	2213
bin	4.35744e-05	2359
bin	4.44288e-05	2462
bin	4.52832e-05	2723
bin	4.61376e-05	2729
bin	4.6992e-05	2649
bin	4.78464e-05	3133
bin	4.87008e-05	2908
bin	4.95552e-05	2960
bin	5.04096e-05	3229
bin	5.1264e-05	3145
bin	5.21184e-05	3230
bin	5.29728e-05	3421
bin	5.38272e-05	3456
bin	5.46816e-05	3471
bin	5.5536e-05	3855
bin	5.63904e-05	3741
bin	5.72448e-05	3986
bin	5.80992e-05	4153
bin	5.89536e-05	3979
bin	5.9808e-05	4195
bin	6.06624e-05	4435
bin	6.15168e-05	4404
bin	6.23712e-05	4605
bin	6.32256e-05	4704
bin	6.408e-05	4668
bin	6.49344e-05	4890
bin	6.57888e-05	5176
bin	6.66432e-05	4882
bin	6.74976e-05	5012
bin	6.8352e-05	5343
bin	6.92064e-05	5100
bin	7.00608e-05	5168
bin	7.09152e-05	5538
bin	7.17696e-05	5346
bin	7.2624e-05	5465
bin	7.34784e-05	5637
bin	7.43328e-05	5558
bin	7.51872e-05	5873
bin	7.60416e-05	5925
bin	7.6896e-05	5807
bin	7.77504e-05	6045
bin	7.86048e-05	6303
bin	7.94592e-05	6099
bin	8.03136e-05	6249
bin	8.1168e-05	6684
bin	8.20224e-05	6540
bin	8.28768e-05	6654
bin	8.37312e-05	7053
bin	8.45856e-05	6767
bin	8.544e-05	6918
bin	8.62944e-05	7197
bin	8.71488e-05	7452
bin	8.80032e-05	7694
bin	8.88576e-05	7469
bin	8.9712e-05	7704
bin	9.05664e-05	7988
bin	9.14208e-05	7799
bin	9.22752e-05	7931
bin	9.31296e-05	8314
bin	9.3984e-05	8175
bin	9.48384e-05	8205
bin	9.56928e-05	8915
bin	9.65472e-05	8607
bin	9.74016e-05	8891
bin	9.8256e-05	9337
bin	9.91104e-05	9134
bin	9.99648e-05	9245
bin	0.0001008192	9718
bin	0.0001016736	9754
bin	0.000102528	9639
bin	0.0001033824	10157
bin	0.0001042368	10071
bin	0.0001050912	10300
bin	0.0001059456	10525
bin	0.0001068	10415
bin	0.0001076544	10402
bin	0.0001085088	10719
bin	0.0001093632	10722
bin	0.0001102176	10907
bin	0.000111072	10862
bin	0.0001119264	11038
bin	0.0001127808	10892
bin	0.0001136352	11282
bin	0.0001144896	11112
bin	0.000115344	11164
bin	0.0001161984	11153
bin	0.0001170528	11266
bin	0.0001179072	10953
bin	0.0001187616	11007
bin	0.000119616	10820
bin	0.0001204704	10781
bin	0.0001213248	10701
bin	0.0001221792	10459
bin	0.0001230336	10311
bin	0.000123888	9324
bin	0.0001247424	8511
bin	0.0001255968	7804
bin	0.0001264512	7361
bin	0.0001273056	6938
bin	0.00012816	6487
bin	0.0001290144	5945
bin	0.0001298688	5278
bin	0.0001307232	4839
bin	0.0001315776	4414
bin	0.000132432	3887
bin	0.0001332864	3444
bin	0.0001341408	3187
bin	0.0001349952	2972
bin	0.0001358496	2792
bin	0.000136704	2400
bin	0.0001375584	2230
bin	0.0001384128	2069
bin	0.0001392672	1955
bin	0.0001401216	1809
bin	0.000140976	1712
bin	0.0001418304	1551
bin	0.0001426848	1487
bin	0.0001435392	1463
bin	0.0001443936	1460
bin	0.000145248	1386
bin	0.0001461024	1469
bin	0.0001469568	1424
bin	0.0001478112	1465
bin	0.0001486656	1368
bin	0.00014952	1306
bin	0.0001503744	1336
bin	0.0001512288	1350
bin	0.0001520832	1343
bin	0.0001529376	1305
bin	0.000153792	1306
bin	0.0001546464	1288
bin	0.0001555008	1225
bin	0.0001563552	1241
bin	0.0001572096	1251
bin	0.000158064	1239
bin	0.0001589184	1237
bin	0.0001597728	1345
bin	0.0001606272	1238
bin	0.0001614816	1257
bin	0.000162336	1269
bin	0.0001631904	1251
bin	0.0001640448	1234
bin	0.0001648992	1256
bin	0.0001657536	1259
bin	0.000166608	1308
bin	0.0001674624	1203
bin	0.0001683168	1192
bin	0.0001691712	1222
bin	0.0001700256	1177
bin	0.00017088	1316
bin	0.0001717344	1368
bin	0.0001725888	1295
bin	0.0001734432	1239
bin	0.0001742976	1230
bin	0.000175152	1285
bin	0.0001760064	1342
bin	0.0001768608	1263
bin	0.0001777152	1340
bin	0.0001785696	1303
bin	0.000179424	1248
bin	0.0001802784	1323
bin	0.0001811328	1361
bin	0.0001819872	1320
bin	0.0001828416	1380
bin	0.000183696	1286
bin	0.0001845504	1307
bin	0.0001854048	1301
bin	0.0001862592	1379
bin	0.0001871136	1425
bin	0.000187968	1370
bin	0.0001888224	1466
bin	0.0001896768	1396
bin	0.0001905312	1454
bin	0.0001913856	1455
bin	0.00019224	1401
bin	0.0001930944	1437
bin	0.0001939488	1392
bin	0.0001948032	1431
bin	0.0001956576	1489
bin	0.000196512	1459
bin	0.0001973664	1459
bin	0.0001982208	1436
bin	0.0001990752	1398
bin	0.0001999296	1458
bin	0.000200784	1398
bin	0.0002016384	1390
bin	0.0002024928	1492
bin	0.0002033472	1463
bin	0.0002042016	1474
bin	0.000205056	1559
bin	0.0002059104	1519
bin	0.0002067648	1575
bin	0.0002076192	1568
bin	0.0002084736	1597
bin	0.000209328	1644
bin	0.0002101824	1547
bin	0.0002110368	1564
bin	0.0002118912	1588
bin	0.0002127456	1569
bin	0.0002136	1590
bin	0.0002144544	1542
bin	0.0002153088	1583
bin	0.0002161632	1479
bin	0.0002170176	1515
bin	0.000217872	1562
bin	0.0002187264	1611
bin	0.0002195808	1578
bin	0.0002204352	1581
bin	0.0002212896	1641
bin	0.000222144	1618
bin	0.0002229984	1667
bin	0.0002238528	1686
bin	0.0002247072	1719
bin	0.0002255616	1658
bin	0.000226416	1615
bin	0.0002272704	1648
bin	0.0002281248	1663
bin	0.0002289792	1728
bin	0.0002298336	1791
bin	0.000230688	1876
bin	0.0002315424	1783
bin	0.0002323968	1829
bin	0.0002332512	1793
bin	0.0002341056	1848
bin	0.00023496	1784
bin	0.0002358144	1818
bin	0.0002366688	1898
bin	0.0002375232	1846
bin	0.0002383776	1912
bin	0.000239232	1931
bin	0.0002400864	1965
bin	0.0002409408	2012
bin	0.0002417952	1962
bin	0.0002426496	1975
bin	0.000243504	1991
bin	0.0002443584	1962
bin	0.0002452128	2006
bin	0.0002460672	2001
bin	0.0002469216	2017
bin	0.000247776	1983
bin	0.0002486304	1892
bin	0.0002494848	1888
bin	0.0002503392	1749
bin	0.0002511936	1670
bin	0.000252048	1608
bin	0.0002529024	1520
bin	0.0002537568	1409
bin	0.0002546112	1280
bin	0.0002554656	1196
bin	0.00025632	1110
bin	0.0002571744	1075
bin	0.0002580288	988
bin	0.0002588832	919
bin	0.0002597376	826
bin	0.000260592	840
bin	0.0002614464	797
bin	0.0002623008	772
bin	0.0002631552	656
bin	0.0002640096	696
bin	0.000264864	659
bin	0.0002657184	654
bin	0.0002665728	660
bin	0.0002674272	690
bin	0.0002682816	628
bin	0.000269136	680
bin	0.0002699904	562
bin	0.0002708448	564
bin	0.0002716992	563
bin	0.0002725536	514
bin	0.000273408	526
bin	0.0002742624	534
bin	0.0002751168	523
bin	0.0002759712	479
bin	0.0002768256	515
bin	0.00027768	476
bin	0.0002785344	483
bin	0.0002793888	503
bin	0.0002802432	507
bin	0.0002810976	444
bin	0.000281952	460
bin	0.0002828064	449
bin	0.0002836608	472
bin	0.0002845152	467
bin	0.0002853696	483
bin	0.000286224	460
bin	0.0002870784	491
bin	0.0002879328	448
bin	0.0002887872	453
bin	0.0002896416	443
bin	0.000290496	461
bin	0.0002913504	474
bin	0.0002922048	457
bin	0.0002930592	432
bin	0.0002939136	494
bin	0.000294768	464
bin	0.0002956224	524
bin	0.0002964768	481
bin	0.0002973312	497
bin	0.0002981856	510
bin	0.00029904	515
bin	0.0002998944	503
bin	0.0003007488	540
bin	0.0003016032	524
bin	0.0003024576	525
bin	0.000303312	533
bin	0.0003041664	542
bin	0.0003050208	534
bin	0.0003058752	527
bin	0.0003067296	531
bin	0.000307584	515
bin	0.0003084384	561
bin	0.0003092928	549
bin	0.0003101472	583
bin	0.0003110016	545
bin	0.000311856	579
bin	0.0003127104	577
bin	0.0003135648	539
bin	0.0003144192	548
bin	0.0003152736	615
bin	0.000316128	580
bin	0.0003169824	561
bin	0.0003178368	534
bin	0.0003186912	553
bin	0.0003195456	516
bin	0.0003204	529
bin	0.0003212544	552
bin	0.0003221088	574
bin	0.0003229632	602
bin	0.0003238176	586
bin	0.000324672	601
bin	0.0003255264	603
bin	0.0003263808	589
bin	0.0003272352	626
bin	0.0003280896	598
bin	0.000328944	601
bin	0.0003297984	607
bin	0.0003306528	613
bin	0.0003315072	644
bin	0.0003323616	615
bin	0.000333216	615
bin	0.0003340704	621
bin	0.0003349248	625
bin	0.0003357792	592
bin	0.0003366336	647
bin	0.000337488	558
bin	0.0003383424	628
bin	0.0003391968	624
bin	0.0003400512	604
bin	0.0003409056	632
bin	0.00034176	652
bin	0.0003426144	655
bin	0.0003434688	644
bin	0.0003443232	662
bin	0.0003451776	652
bin	0.000346032	704
bin	0.0003468864	616
bin	0.0003477408	627
bin	0.0003485952	624
bin	0.0003494496	619
bin	0.000350304	649
bin	0.0003511584	677
bin	0.0003520128	670
bin	0.0003528672	607
bin	0.0003537216	685
bin	0.000354576	721
bin	0.0003554304	663
bin	0.0003562848	712
bin	0.0003571392	650
bin	0.0003579936	687
bin	0.000358848	707
bin	0.0003597024	691
bin	0.0003605568	670
bin	0.0003614112	751
bin	0.0003622656	751
bin	0.00036312	700
bin	0.0003639744	695
bin	0.0003648288	682
bin	0.0003656832	738
bin	0.0003665376	766
bin	0.000367392	746
bin	0.0003682464	788
bin	0.0003691008	764
bin	0.0003699552	799
bin	0.0003708096	728
bin	0.000371664	719
bin	0.0003725184	739
bin	0.0003733728	710
bin	0.0003742272	684
bin	0.0003750816	672
bin	0.000375936	652
bin	0.0003767904	609
bin	0.0003776448	595
bin	0.0003784992	578
bin	0.0003793536	519
bin	0.000380208	528
bin	0.0003810624	512
bin	0.0003819168	472
bin	0.0003827712	402
bin	0.0003836256	411
bin	0.00038448	414
bin	0.0003853344	389
bin	0.0003861888	387
bin	0.0003870432	381
bin	0.0003878976	365
bin	0.000388752	374
bin	0.0003896064	362
bin	0.0003904608	347
bin	0.0003913152	330
bin	0.0003921696	356
bin	0.000393024	303
bin	0.0003938784	312
bin	0.0003947328	291
bin	0.0003955872	288
bin	0.0003964416	288
bin	0.000397296	305
bin	0.0003981504	278
bin	0.0003990048	279
bin	0.0003998592	315
bin	0.0004007136	256
bin	0.000401568	289
bin	0.0004024224	273
bin	0.0004032768	291
bin	0.0004041312	233
bin	0.0004049856	290
bin	0.00040584	253
bin	0.0004066944	283
bin	0.0004075488	258
bin	0.0004084032	284
bin	0.0004092576	265
bin	0.000410112	267
bin	0.0004109664	262
bin	0.0004118208	278
bin	0.0004126752	271
bin	0.0004135296	259
bin	0.000414384	262
bin	0.0004152384	299
bin	0.0004160928	254
bin	0.0004169472	281
bin	0.0004178016	247
bin	0.000418656	275
bin	0.0004195104	276
bin	0.0004203648	327
bin	0.0004212192	278
bin	0.0004220736	264
bin	0.000422928	293
bin	0.0004237824	285
bin	0.0004246368	278
bin	0.0004254912	314
bin	0.0004263456	288
bin	0.0004272	5195357
