version 2
run Tornado-9-20120709-23:07:23-24959
attr alg 1
attr buf 8
attr configname Tornado
attr datetime 20120709-23:07:23
attr delta 0.6
attr experiment Tornado
attr ext true
attr inifile altro.ini
attr iterationvars "$buf=8, $ext=true, $ofedge=1, $delta=0.6, $alg=1"
attr iterationvars2 "$buf=8, $ext=true, $ofedge=1, $delta=0.6, $alg=1, $repetition=0"
attr measurement "$buf=8, $ext=true, $ofedge=1, $delta=0.6, $alg=1"
attr network Torus3d_bub
attr ofedge 1
attr processid 24959
attr repetition 0
attr replication #0
attr resultdir altro-results
attr runnumber 9
attr seedset 9

scalar . 	alg 	1
scalar . 	buf 	8
scalar . 	delta 	0.6
scalar . 	ofedge 	1
scalar Torus3d_bub.timer 	#endTime 	0.025025107999999
scalar Torus3d_bub.timer 	#totalHops 	156929263
scalar Torus3d_bub.timer 	#totalPacks 	6291456
scalar Torus3d_bub.timer 	#totalDerouted 	5004485
scalar Torus3d_bub.timer 	#totalOutFlanked 	5004485
scalar Torus3d_bub.timer 	#totalCQRed 	0
scalar Torus3d_bub.timer 	#LB 	0.000786432
scalar Torus3d_bub.timer 	#ratio 	0.031425718522375
statistic Torus3d_bub.timer 	"Hop Times"
field count 6291456
field mean 0.00074768585912106
field stddev 0.00020686844028305
field sum 4704.0326844823
field sqrsum 3.7863787145738
field min 8.15809523e-07
field max 0.00118945947619
bin	-INF	0
bin	0	0
bin	7.12e-08	0
bin	1.424e-07	0
bin	2.136e-07	0
bin	2.848e-07	0
bin	3.56e-07	0
bin	4.272e-07	0
bin	4.984e-07	0
bin	5.696e-07	0
bin	6.408e-07	0
bin	7.12e-07	0
bin	7.832e-07	4
bin	8.544e-07	19
bin	9.256e-07	21
bin	9.968e-07	52
bin	1.068e-06	62
bin	1.1392e-06	54
bin	1.2104e-06	177
bin	1.2816e-06	302
bin	1.3528e-06	351
bin	1.424e-06	391
bin	1.4952e-06	493
bin	1.5664e-06	1288
bin	1.6376e-06	981
bin	1.7088e-06	1869
bin	1.78e-06	1720
bin	1.8512e-06	1777
bin	1.9224e-06	1708
bin	1.9936e-06	1492
bin	2.0648e-06	1469
bin	2.136e-06	1472
bin	2.2072e-06	1473
bin	2.2784e-06	1472
bin	2.3496e-06	1413
bin	2.4208e-06	1409
bin	2.492e-06	1298
bin	2.5632e-06	1228
bin	2.6344e-06	1186
bin	2.7056e-06	1079
bin	2.7768e-06	1142
bin	2.848e-06	1075
bin	2.9192e-06	1042
bin	2.9904e-06	1072
bin	3.0616e-06	1030
bin	3.1328e-06	1051
bin	3.204e-06	930
bin	3.2752e-06	876
bin	3.3464e-06	933
bin	3.4176e-06	892
bin	3.4888e-06	847
bin	3.56e-06	890
bin	3.6312e-06	904
bin	3.7024e-06	738
bin	3.7736e-06	788
bin	3.8448e-06	757
bin	3.916e-06	697
bin	3.9872e-06	644
bin	4.0584e-06	662
bin	4.1296e-06	669
bin	4.2008e-06	707
bin	4.272e-06	643
bin	4.3432e-06	602
bin	4.4144e-06	637
bin	4.4856e-06	573
bin	4.5568e-06	509
bin	4.628e-06	504
bin	4.6992e-06	474
bin	4.7704e-06	457
bin	4.8416e-06	379
bin	4.9128e-06	388
bin	4.984e-06	374
bin	5.0552e-06	351
bin	5.1264e-06	381
bin	5.1976e-06	316
bin	5.2688e-06	377
bin	5.34e-06	314
bin	5.4112e-06	353
bin	5.4824e-06	348
bin	5.5536e-06	301
bin	5.6248e-06	261
bin	5.696e-06	238
bin	5.7672e-06	253
bin	5.8384e-06	239
bin	5.9096e-06	241
bin	5.9808e-06	225
bin	6.052e-06	224
bin	6.1232e-06	198
bin	6.1944e-06	230
bin	6.2656e-06	213
bin	6.3368e-06	219
bin	6.408e-06	246
bin	6.4792e-06	240
bin	6.5504e-06	213
bin	6.6216e-06	227
bin	6.6928e-06	197
bin	6.764e-06	199
bin	6.8352e-06	194
bin	6.9064e-06	192
bin	6.9776e-06	166
bin	7.0488e-06	164
bin	7.12e-06	163
bin	7.1912e-06	133
bin	7.2624e-06	158
bin	7.3336e-06	171
bin	7.4048e-06	117
bin	7.476e-06	141
bin	7.5472e-06	167
bin	7.6184e-06	131
bin	7.6896e-06	170
bin	7.7608e-06	153
bin	7.832e-06	164
bin	7.9032e-06	143
bin	7.9744e-06	137
bin	8.0456e-06	158
bin	8.1168e-06	142
bin	8.188e-06	140
bin	8.2592e-06	133
bin	8.3304e-06	113
bin	8.4016e-06	127
bin	8.4728e-06	113
bin	8.544e-06	127
bin	8.6152e-06	150
bin	8.6864e-06	115
bin	8.7576e-06	110
bin	8.8288e-06	92
bin	8.9e-06	90
bin	8.9712e-06	63
bin	9.0424e-06	99
bin	9.1136e-06	89
bin	9.1848e-06	90
bin	9.256e-06	80
bin	9.3272e-06	80
bin	9.3984e-06	105
bin	9.4696e-06	100
bin	9.5408e-06	99
bin	9.612e-06	117
bin	9.6832e-06	102
bin	9.7544e-06	94
bin	9.8256e-06	111
bin	9.8968e-06	97
bin	9.968e-06	88
bin	1.00392e-05	97
bin	1.01104e-05	89
bin	1.01816e-05	108
bin	1.02528e-05	102
bin	1.0324e-05	94
bin	1.03952e-05	64
bin	1.04664e-05	85
bin	1.05376e-05	63
bin	1.06088e-05	72
bin	1.068e-05	76
bin	1.07512e-05	82
bin	1.08224e-05	66
bin	1.08936e-05	73
bin	1.09648e-05	70
bin	1.1036e-05	61
bin	1.11072e-05	72
bin	1.11784e-05	88
bin	1.12496e-05	91
bin	1.13208e-05	90
bin	1.1392e-05	93
bin	1.14632e-05	88
bin	1.15344e-05	92
bin	1.16056e-05	85
bin	1.16768e-05	87
bin	1.1748e-05	85
bin	1.18192e-05	66
bin	1.18904e-05	85
bin	1.19616e-05	57
bin	1.20328e-05	78
bin	1.2104e-05	69
bin	1.21752e-05	70
bin	1.22464e-05	65
bin	1.23176e-05	71
bin	1.23888e-05	52
bin	1.246e-05	59
bin	1.25312e-05	45
bin	1.26024e-05	68
bin	1.26736e-05	46
bin	1.27448e-05	59
bin	1.2816e-05	48
bin	1.28872e-05	56
bin	1.29584e-05	36
bin	1.30296e-05	68
bin	1.31008e-05	50
bin	1.3172e-05	53
bin	1.32432e-05	59
bin	1.33144e-05	58
bin	1.33856e-05	65
bin	1.34568e-05	68
bin	1.3528e-05	70
bin	1.35992e-05	60
bin	1.36704e-05	57
bin	1.37416e-05	44
bin	1.38128e-05	44
bin	1.3884e-05	56
bin	1.39552e-05	59
bin	1.40264e-05	59
bin	1.40976e-05	56
bin	1.41688e-05	56
bin	1.424e-05	34
bin	1.43112e-05	45
bin	1.43824e-05	41
bin	1.44536e-05	53
bin	1.45248e-05	50
bin	1.4596e-05	38
bin	1.46672e-05	38
bin	1.47384e-05	46
bin	1.48096e-05	46
bin	1.48808e-05	45
bin	1.4952e-05	50
bin	1.50232e-05	52
bin	1.50944e-05	45
bin	1.51656e-05	44
bin	1.52368e-05	46
bin	1.5308e-05	51
bin	1.53792e-05	32
bin	1.54504e-05	35
bin	1.55216e-05	41
bin	1.55928e-05	40
bin	1.5664e-05	43
bin	1.57352e-05	32
bin	1.58064e-05	32
bin	1.58776e-05	48
bin	1.59488e-05	33
bin	1.602e-05	39
bin	1.60912e-05	27
bin	1.61624e-05	33
bin	1.62336e-05	37
bin	1.63048e-05	28
bin	1.6376e-05	39
bin	1.64472e-05	64
bin	1.65184e-05	43
bin	1.65896e-05	33
bin	1.66608e-05	37
bin	1.6732e-05	30
bin	1.68032e-05	26
bin	1.68744e-05	43
bin	1.69456e-05	42
bin	1.70168e-05	36
bin	1.7088e-05	39
bin	1.71592e-05	41
bin	1.72304e-05	31
bin	1.73016e-05	35
bin	1.73728e-05	37
bin	1.7444e-05	28
bin	1.75152e-05	24
bin	1.75864e-05	39
bin	1.76576e-05	40
bin	1.77288e-05	49
bin	1.78e-05	32
bin	1.78712e-05	36
bin	1.79424e-05	39
bin	1.80136e-05	43
bin	1.80848e-05	29
bin	1.8156e-05	31
bin	1.82272e-05	19
bin	1.82984e-05	28
bin	1.83696e-05	32
bin	1.84408e-05	24
bin	1.8512e-05	28
bin	1.85832e-05	24
bin	1.86544e-05	28
bin	1.87256e-05	22
bin	1.87968e-05	24
bin	1.8868e-05	28
bin	1.89392e-05	32
bin	1.90104e-05	29
bin	1.90816e-05	44
bin	1.91528e-05	24
bin	1.9224e-05	25
bin	1.92952e-05	41
bin	1.93664e-05	35
bin	1.94376e-05	29
bin	1.95088e-05	30
bin	1.958e-05	34
bin	1.96512e-05	31
bin	1.97224e-05	25
bin	1.97936e-05	22
bin	1.98648e-05	32
bin	1.9936e-05	22
bin	2.00072e-05	26
bin	2.00784e-05	31
bin	2.01496e-05	34
bin	2.02208e-05	39
bin	2.0292e-05	31
bin	2.03632e-05	36
bin	2.04344e-05	53
bin	2.05056e-05	32
bin	2.05768e-05	27
bin	2.0648e-05	28
bin	2.07192e-05	37
bin	2.07904e-05	27
bin	2.08616e-05	33
bin	2.09328e-05	23
bin	2.1004e-05	31
bin	2.10752e-05	38
bin	2.11464e-05	21
bin	2.12176e-05	29
bin	2.12888e-05	20
bin	2.136e-05	21
bin	2.14312e-05	21
bin	2.15024e-05	17
bin	2.15736e-05	27
bin	2.16448e-05	21
bin	2.1716e-05	36
bin	2.17872e-05	24
bin	2.18584e-05	35
bin	2.19296e-05	28
bin	2.20008e-05	16
bin	2.2072e-05	18
bin	2.21432e-05	28
bin	2.22144e-05	24
bin	2.22856e-05	21
bin	2.23568e-05	22
bin	2.2428e-05	22
bin	2.24992e-05	26
bin	2.25704e-05	21
bin	2.26416e-05	26
bin	2.27128e-05	16
bin	2.2784e-05	26
bin	2.28552e-05	30
bin	2.29264e-05	22
bin	2.29976e-05	26
bin	2.30688e-05	28
bin	2.314e-05	24
bin	2.32112e-05	33
bin	2.32824e-05	17
bin	2.33536e-05	20
bin	2.34248e-05	17
bin	2.3496e-05	14
bin	2.35672e-05	21
bin	2.36384e-05	26
bin	2.37096e-05	22
bin	2.37808e-05	24
bin	2.3852e-05	21
bin	2.39232e-05	20
bin	2.39944e-05	21
bin	2.40656e-05	8
bin	2.41368e-05	16
bin	2.4208e-05	17
bin	2.42792e-05	17
bin	2.43504e-05	16
bin	2.44216e-05	21
bin	2.44928e-05	12
bin	2.4564e-05	16
bin	2.46352e-05	15
bin	2.47064e-05	17
bin	2.47776e-05	12
bin	2.48488e-05	17
bin	2.492e-05	11
bin	2.49912e-05	9
bin	2.50624e-05	9
bin	2.51336e-05	10
bin	2.52048e-05	16
bin	2.5276e-05	15
bin	2.53472e-05	17
bin	2.54184e-05	17
bin	2.54896e-05	11
bin	2.55608e-05	12
bin	2.5632e-05	21
bin	2.57032e-05	22
bin	2.57744e-05	15
bin	2.58456e-05	9
bin	2.59168e-05	6
bin	2.5988e-05	18
bin	2.60592e-05	7
bin	2.61304e-05	19
bin	2.62016e-05	21
bin	2.62728e-05	21
bin	2.6344e-05	17
bin	2.64152e-05	16
bin	2.64864e-05	23
bin	2.65576e-05	18
bin	2.66288e-05	19
bin	2.67e-05	17
bin	2.67712e-05	13
bin	2.68424e-05	30
bin	2.69136e-05	22
bin	2.69848e-05	20
bin	2.7056e-05	22
bin	2.71272e-05	11
bin	2.71984e-05	15
bin	2.72696e-05	18
bin	2.73408e-05	13
bin	2.7412e-05	13
bin	2.74832e-05	15
bin	2.75544e-05	11
bin	2.76256e-05	15
bin	2.76968e-05	12
bin	2.7768e-05	24
bin	2.78392e-05	22
bin	2.79104e-05	18
bin	2.79816e-05	29
bin	2.80528e-05	20
bin	2.8124e-05	11
bin	2.81952e-05	8
bin	2.82664e-05	4
bin	2.83376e-05	9
bin	2.84088e-05	17
bin	2.848e-05	14
bin	2.85512e-05	18
bin	2.86224e-05	9
bin	2.86936e-05	9
bin	2.87648e-05	9
bin	2.8836e-05	17
bin	2.89072e-05	12
bin	2.89784e-05	8
bin	2.90496e-05	6
bin	2.91208e-05	24
bin	2.9192e-05	25
bin	2.92632e-05	21
bin	2.93344e-05	22
bin	2.94056e-05	14
bin	2.94768e-05	22
bin	2.9548e-05	19
bin	2.96192e-05	14
bin	2.96904e-05	12
bin	2.97616e-05	15
bin	2.98328e-05	9
bin	2.9904e-05	14
bin	2.99752e-05	13
bin	3.00464e-05	12
bin	3.01176e-05	12
bin	3.01888e-05	13
bin	3.026e-05	10
bin	3.03312e-05	8
bin	3.04024e-05	12
bin	3.04736e-05	12
bin	3.05448e-05	6
bin	3.0616e-05	9
bin	3.06872e-05	11
bin	3.07584e-05	14
bin	3.08296e-05	14
bin	3.09008e-05	12
bin	3.0972e-05	6
bin	3.10432e-05	8
bin	3.11144e-05	16
bin	3.11856e-05	16
bin	3.12568e-05	13
bin	3.1328e-05	8
bin	3.13992e-05	6
bin	3.14704e-05	12
bin	3.15416e-05	10
bin	3.16128e-05	11
bin	3.1684e-05	14
bin	3.17552e-05	11
bin	3.18264e-05	15
bin	3.18976e-05	18
bin	3.19688e-05	16
bin	3.204e-05	14
bin	3.21112e-05	3
bin	3.21824e-05	9
bin	3.22536e-05	10
bin	3.23248e-05	9
bin	3.2396e-05	7
bin	3.24672e-05	20
bin	3.25384e-05	16
bin	3.26096e-05	9
bin	3.26808e-05	7
bin	3.2752e-05	15
bin	3.28232e-05	9
bin	3.28944e-05	12
bin	3.29656e-05	13
bin	3.30368e-05	16
bin	3.3108e-05	9
bin	3.31792e-05	8
bin	3.32504e-05	6
bin	3.33216e-05	11
bin	3.33928e-05	13
bin	3.3464e-05	6
bin	3.35352e-05	9
bin	3.36064e-05	7
bin	3.36776e-05	7
bin	3.37488e-05	12
bin	3.382e-05	18
bin	3.38912e-05	11
bin	3.39624e-05	6
bin	3.40336e-05	8
bin	3.41048e-05	2
bin	3.4176e-05	5
bin	3.42472e-05	4
bin	3.43184e-05	6
bin	3.43896e-05	5
bin	3.44608e-05	12
bin	3.4532e-05	16
bin	3.46032e-05	13
bin	3.46744e-05	10
bin	3.47456e-05	4
bin	3.48168e-05	11
bin	3.4888e-05	8
bin	3.49592e-05	9
bin	3.50304e-05	10
bin	3.51016e-05	13
bin	3.51728e-05	9
bin	3.5244e-05	15
bin	3.53152e-05	9
bin	3.53864e-05	11
bin	3.54576e-05	7
bin	3.55288e-05	11
bin	3.56e-05	6218440
statistic Torus3d_bub.timer 	"Life Times"
field count 6291456
field mean 0.018441107163666
field stddev 0.0044534610281544
field sum 116021.41431149
field sqrsum 2264.3437442351
field min 1.7131999999e-05
field max 0.024978648999999
bin	-INF	0
bin	0	0
bin	8.544e-07	0
bin	1.7088e-06	0
bin	2.5632e-06	0
bin	3.4176e-06	0
bin	4.272e-06	0
bin	5.1264e-06	0
bin	5.9808e-06	0
bin	6.8352e-06	0
bin	7.6896e-06	0
bin	8.544e-06	0
bin	9.3984e-06	0
bin	1.02528e-05	0
bin	1.11072e-05	0
bin	1.19616e-05	0
bin	1.2816e-05	0
bin	1.36704e-05	0
bin	1.45248e-05	0
bin	1.53792e-05	0
bin	1.62336e-05	0
bin	1.7088e-05	4
bin	1.79424e-05	5
bin	1.87968e-05	14
bin	1.96512e-05	19
bin	2.05056e-05	16
bin	2.136e-05	34
bin	2.22144e-05	43
bin	2.30688e-05	23
bin	2.39232e-05	30
bin	2.47776e-05	44
bin	2.5632e-05	90
bin	2.64864e-05	97
bin	2.73408e-05	216
bin	2.81952e-05	196
bin	2.90496e-05	199
bin	2.9904e-05	253
bin	3.07584e-05	184
bin	3.16128e-05	203
bin	3.24672e-05	651
bin	3.33216e-05	606
bin	3.4176e-05	388
bin	3.50304e-05	535
bin	3.58848e-05	789
bin	3.67392e-05	843
bin	3.75936e-05	970
bin	3.8448e-05	747
bin	3.93024e-05	702
bin	4.01568e-05	830
bin	4.10112e-05	672
bin	4.18656e-05	638
bin	4.272e-05	674
bin	4.35744e-05	623
bin	4.44288e-05	664
bin	4.52832e-05	831
bin	4.61376e-05	723
bin	4.6992e-05	679
bin	4.78464e-05	793
bin	4.87008e-05	737
bin	4.95552e-05	657
bin	5.04096e-05	677
bin	5.1264e-05	777
bin	5.21184e-05	654
bin	5.29728e-05	617
bin	5.38272e-05	599
bin	5.46816e-05	660
bin	5.5536e-05	585
bin	5.63904e-05	553
bin	5.72448e-05	573
bin	5.80992e-05	559
bin	5.89536e-05	511
bin	5.9808e-05	472
bin	6.06624e-05	601
bin	6.15168e-05	494
bin	6.23712e-05	509
bin	6.32256e-05	558
bin	6.408e-05	548
bin	6.49344e-05	534
bin	6.57888e-05	556
bin	6.66432e-05	532
bin	6.74976e-05	511
bin	6.8352e-05	439
bin	6.92064e-05	453
bin	7.00608e-05	523
bin	7.09152e-05	483
bin	7.17696e-05	464
bin	7.2624e-05	486
bin	7.34784e-05	507
bin	7.43328e-05	440
bin	7.51872e-05	425
bin	7.60416e-05	496
bin	7.6896e-05	469
bin	7.77504e-05	431
bin	7.86048e-05	422
bin	7.94592e-05	489
bin	8.03136e-05	439
bin	8.1168e-05	405
bin	8.20224e-05	431
bin	8.28768e-05	465
bin	8.37312e-05	411
bin	8.45856e-05	407
bin	8.544e-05	453
bin	8.62944e-05	447
bin	8.71488e-05	397
bin	8.80032e-05	429
bin	8.88576e-05	448
bin	8.9712e-05	412
bin	9.05664e-05	379
bin	9.14208e-05	389
bin	9.22752e-05	401
bin	9.31296e-05	368
bin	9.3984e-05	400
bin	9.48384e-05	410
bin	9.56928e-05	377
bin	9.65472e-05	347
bin	9.74016e-05	335
bin	9.8256e-05	366
bin	9.91104e-05	294
bin	9.99648e-05	292
bin	0.0001008192	311
bin	0.0001016736	292
bin	0.000102528	273
bin	0.0001033824	264
bin	0.0001042368	338
bin	0.0001050912	277
bin	0.0001059456	291
bin	0.0001068	271
bin	0.0001076544	280
bin	0.0001085088	274
bin	0.0001093632	247
bin	0.0001102176	317
bin	0.000111072	267
bin	0.0001119264	229
bin	0.0001127808	227
bin	0.0001136352	257
bin	0.0001144896	227
bin	0.000115344	213
bin	0.0001161984	244
bin	0.0001170528	250
bin	0.0001179072	196
bin	0.0001187616	181
bin	0.000119616	213
bin	0.0001204704	170
bin	0.0001213248	154
bin	0.0001221792	154
bin	0.0001230336	166
bin	0.000123888	137
bin	0.0001247424	159
bin	0.0001255968	146
bin	0.0001264512	146
bin	0.0001273056	135
bin	0.00012816	139
bin	0.0001290144	154
bin	0.0001298688	144
bin	0.0001307232	139
bin	0.0001315776	132
bin	0.000132432	151
bin	0.0001332864	123
bin	0.0001341408	143
bin	0.0001349952	145
bin	0.0001358496	157
bin	0.000136704	134
bin	0.0001375584	155
bin	0.0001384128	158
bin	0.0001392672	175
bin	0.0001401216	119
bin	0.000140976	118
bin	0.0001418304	135
bin	0.0001426848	126
bin	0.0001435392	125
bin	0.0001443936	113
bin	0.000145248	92
bin	0.0001461024	104
bin	0.0001469568	88
bin	0.0001478112	108
bin	0.0001486656	98
bin	0.00014952	101
bin	0.0001503744	106
bin	0.0001512288	104
bin	0.0001520832	102
bin	0.0001529376	86
bin	0.000153792	93
bin	0.0001546464	117
bin	0.0001555008	85
bin	0.0001563552	96
bin	0.0001572096	110
bin	0.000158064	106
bin	0.0001589184	102
bin	0.0001597728	86
bin	0.0001606272	91
bin	0.0001614816	104
bin	0.000162336	94
bin	0.0001631904	80
bin	0.0001640448	95
bin	0.0001648992	94
bin	0.0001657536	77
bin	0.000166608	106
bin	0.0001674624	96
bin	0.0001683168	95
bin	0.0001691712	97
bin	0.0001700256	106
bin	0.00017088	85
bin	0.0001717344	88
bin	0.0001725888	100
bin	0.0001734432	100
bin	0.0001742976	99
bin	0.000175152	71
bin	0.0001760064	73
bin	0.0001768608	67
bin	0.0001777152	61
bin	0.0001785696	67
bin	0.000179424	75
bin	0.0001802784	72
bin	0.0001811328	66
bin	0.0001819872	72
bin	0.0001828416	78
bin	0.000183696	61
bin	0.0001845504	63
bin	0.0001854048	57
bin	0.0001862592	63
bin	0.0001871136	47
bin	0.000187968	43
bin	0.0001888224	69
bin	0.0001896768	66
bin	0.0001905312	58
bin	0.0001913856	53
bin	0.00019224	61
bin	0.0001930944	61
bin	0.0001939488	64
bin	0.0001948032	53
bin	0.0001956576	64
bin	0.000196512	50
bin	0.0001973664	66
bin	0.0001982208	60
bin	0.0001990752	67
bin	0.0001999296	76
bin	0.000200784	75
bin	0.0002016384	86
bin	0.0002024928	63
bin	0.0002033472	63
bin	0.0002042016	64
bin	0.000205056	69
bin	0.0002059104	64
bin	0.0002067648	80
bin	0.0002076192	58
bin	0.0002084736	55
bin	0.000209328	68
bin	0.0002101824	74
bin	0.0002110368	82
bin	0.0002118912	63
bin	0.0002127456	60
bin	0.0002136	71
bin	0.0002144544	64
bin	0.0002153088	65
bin	0.0002161632	67
bin	0.0002170176	66
bin	0.000217872	54
bin	0.0002187264	59
bin	0.0002195808	56
bin	0.0002204352	47
bin	0.0002212896	51
bin	0.000222144	44
bin	0.0002229984	57
bin	0.0002238528	51
bin	0.0002247072	38
bin	0.0002255616	34
bin	0.000226416	40
bin	0.0002272704	31
bin	0.0002281248	37
bin	0.0002289792	42
bin	0.0002298336	34
bin	0.000230688	38
bin	0.0002315424	37
bin	0.0002323968	41
bin	0.0002332512	50
bin	0.0002341056	35
bin	0.00023496	60
bin	0.0002358144	48
bin	0.0002366688	44
bin	0.0002375232	35
bin	0.0002383776	38
bin	0.000239232	35
bin	0.0002400864	50
bin	0.0002409408	49
bin	0.0002417952	45
bin	0.0002426496	52
bin	0.000243504	42
bin	0.0002443584	48
bin	0.0002452128	56
bin	0.0002460672	39
bin	0.0002469216	54
bin	0.000247776	53
bin	0.0002486304	49
bin	0.0002494848	42
bin	0.0002503392	49
bin	0.0002511936	51
bin	0.000252048	39
bin	0.0002529024	38
bin	0.0002537568	39
bin	0.0002546112	49
bin	0.0002554656	47
bin	0.00025632	48
bin	0.0002571744	50
bin	0.0002580288	39
bin	0.0002588832	35
bin	0.0002597376	39
bin	0.000260592	30
bin	0.0002614464	33
bin	0.0002623008	32
bin	0.0002631552	32
bin	0.0002640096	37
bin	0.000264864	36
bin	0.0002657184	37
bin	0.0002665728	38
bin	0.0002674272	35
bin	0.0002682816	27
bin	0.000269136	36
bin	0.0002699904	43
bin	0.0002708448	38
bin	0.0002716992	37
bin	0.0002725536	41
bin	0.000273408	44
bin	0.0002742624	32
bin	0.0002751168	35
bin	0.0002759712	35
bin	0.0002768256	34
bin	0.00027768	22
bin	0.0002785344	31
bin	0.0002793888	37
bin	0.0002802432	26
bin	0.0002810976	34
bin	0.000281952	36
bin	0.0002828064	41
bin	0.0002836608	36
bin	0.0002845152	34
bin	0.0002853696	39
bin	0.000286224	39
bin	0.0002870784	28
bin	0.0002879328	37
bin	0.0002887872	34
bin	0.0002896416	35
bin	0.000290496	28
bin	0.0002913504	51
bin	0.0002922048	42
bin	0.0002930592	37
bin	0.0002939136	34
bin	0.000294768	38
bin	0.0002956224	36
bin	0.0002964768	32
bin	0.0002973312	49
bin	0.0002981856	40
bin	0.00029904	20
bin	0.0002998944	28
bin	0.0003007488	42
bin	0.0003016032	45
bin	0.0003024576	26
bin	0.000303312	27
bin	0.0003041664	29
bin	0.0003050208	31
bin	0.0003058752	28
bin	0.0003067296	28
bin	0.000307584	35
bin	0.0003084384	30
bin	0.0003092928	23
bin	0.0003101472	37
bin	0.0003110016	31
bin	0.000311856	39
bin	0.0003127104	29
bin	0.0003135648	32
bin	0.0003144192	36
bin	0.0003152736	23
bin	0.000316128	33
bin	0.0003169824	32
bin	0.0003178368	26
bin	0.0003186912	21
bin	0.0003195456	41
bin	0.0003204	34
bin	0.0003212544	30
bin	0.0003221088	29
bin	0.0003229632	12
bin	0.0003238176	12
bin	0.000324672	21
bin	0.0003255264	20
bin	0.0003263808	18
bin	0.0003272352	29
bin	0.0003280896	19
bin	0.000328944	22
bin	0.0003297984	22
bin	0.0003306528	27
bin	0.0003315072	21
bin	0.0003323616	29
bin	0.000333216	23
bin	0.0003340704	24
bin	0.0003349248	12
bin	0.0003357792	31
bin	0.0003366336	28
bin	0.000337488	21
bin	0.0003383424	24
bin	0.0003391968	21
bin	0.0003400512	26
bin	0.0003409056	22
bin	0.00034176	18
bin	0.0003426144	17
bin	0.0003434688	19
bin	0.0003443232	19
bin	0.0003451776	32
bin	0.000346032	26
bin	0.0003468864	24
bin	0.0003477408	27
bin	0.0003485952	28
bin	0.0003494496	36
bin	0.000350304	32
bin	0.0003511584	26
bin	0.0003520128	24
bin	0.0003528672	22
bin	0.0003537216	23
bin	0.000354576	26
bin	0.0003554304	21
bin	0.0003562848	21
bin	0.0003571392	25
bin	0.0003579936	18
bin	0.000358848	26
bin	0.0003597024	18
bin	0.0003605568	21
bin	0.0003614112	12
bin	0.0003622656	19
bin	0.00036312	23
bin	0.0003639744	30
bin	0.0003648288	28
bin	0.0003656832	23
bin	0.0003665376	18
bin	0.000367392	21
bin	0.0003682464	19
bin	0.0003691008	29
bin	0.0003699552	21
bin	0.0003708096	18
bin	0.000371664	15
bin	0.0003725184	17
bin	0.0003733728	20
bin	0.0003742272	19
bin	0.0003750816	22
bin	0.000375936	31
bin	0.0003767904	20
bin	0.0003776448	20
bin	0.0003784992	21
bin	0.0003793536	23
bin	0.000380208	13
bin	0.0003810624	15
bin	0.0003819168	15
bin	0.0003827712	21
bin	0.0003836256	10
bin	0.00038448	11
bin	0.0003853344	19
bin	0.0003861888	18
bin	0.0003870432	18
bin	0.0003878976	20
bin	0.000388752	17
bin	0.0003896064	17
bin	0.0003904608	20
bin	0.0003913152	13
bin	0.0003921696	23
bin	0.000393024	19
bin	0.0003938784	15
bin	0.0003947328	13
bin	0.0003955872	18
bin	0.0003964416	16
bin	0.000397296	28
bin	0.0003981504	17
bin	0.0003990048	31
bin	0.0003998592	15
bin	0.0004007136	18
bin	0.000401568	22
bin	0.0004024224	20
bin	0.0004032768	13
bin	0.0004041312	18
bin	0.0004049856	17
bin	0.00040584	17
bin	0.0004066944	20
bin	0.0004075488	7
bin	0.0004084032	12
bin	0.0004092576	12
bin	0.000410112	15
bin	0.0004109664	17
bin	0.0004118208	16
bin	0.0004126752	24
bin	0.0004135296	23
bin	0.000414384	18
bin	0.0004152384	10
bin	0.0004160928	14
bin	0.0004169472	19
bin	0.0004178016	14
bin	0.000418656	9
bin	0.0004195104	13
bin	0.0004203648	16
bin	0.0004212192	12
bin	0.0004220736	14
bin	0.000422928	18
bin	0.0004237824	17
bin	0.0004246368	20
bin	0.0004254912	18
bin	0.0004263456	19
bin	0.0004272	6223045
