version 2
run Transposition-9-20120710-07:59:12-25254
attr alg 1
attr buf 8
attr configname Transposition
attr datetime 20120710-07:59:12
attr delta 0.6
attr experiment Transposition
attr ext true
attr inifile altro.ini
attr iterationvars "$buf=8, $ext=true, $ofedge=1, $delta=0.6, $alg=1"
attr iterationvars2 "$buf=8, $ext=true, $ofedge=1, $delta=0.6, $alg=1, $repetition=0"
attr measurement "$buf=8, $ext=true, $ofedge=1, $delta=0.6, $alg=1"
attr network Torus3d_bub
attr ofedge 1
attr processid 25254
attr repetition 0
attr replication #0
attr resultdir altro-results
attr runnumber 9
attr seedset 9

scalar . 	alg 	1
scalar . 	buf 	8
scalar . 	delta 	0.6
scalar . 	ofedge 	1
scalar Torus3d_bub.timer 	#endTime 	0.004043016327343
scalar Torus3d_bub.timer 	#totalHops 	83044032
scalar Torus3d_bub.timer 	#totalPacks 	6291456
scalar Torus3d_bub.timer 	#totalDerouted 	1795804
scalar Torus3d_bub.timer 	#totalOutFlanked 	1795804
scalar Torus3d_bub.timer 	#totalCQRed 	0
scalar Torus3d_bub.timer 	#LB 	0.000786432
scalar Torus3d_bub.timer 	#ratio 	0.19451615732574
statistic Torus3d_bub.timer 	"Hop Times"
field count 6193152
field mean 7.2918021144322e-05
field stddev 8.4441643505259e-05
field sum 451.592388486
field sqrsum 0.077088812461987
field min 3.97925925e-07
field max 0.000724931666653
bin	-INF	0
bin	0	0
bin	7.12e-08	0
bin	1.424e-07	0
bin	2.136e-07	0
bin	2.848e-07	0
bin	3.56e-07	83
bin	4.272e-07	2925
bin	4.984e-07	6803
bin	5.696e-07	11775
bin	6.408e-07	17219
bin	7.12e-07	22221
bin	7.832e-07	26140
bin	8.544e-07	28939
bin	9.256e-07	30954
bin	9.968e-07	32605
bin	1.068e-06	34082
bin	1.1392e-06	35606
bin	1.2104e-06	37932
bin	1.2816e-06	41136
bin	1.3528e-06	44942
bin	1.424e-06	50422
bin	1.4952e-06	55649
bin	1.5664e-06	60568
bin	1.6376e-06	65222
bin	1.7088e-06	68979
bin	1.78e-06	72296
bin	1.8512e-06	74013
bin	1.9224e-06	75371
bin	1.9936e-06	75946
bin	2.0648e-06	76044
bin	2.136e-06	75250
bin	2.2072e-06	73271
bin	2.2784e-06	71390
bin	2.3496e-06	68607
bin	2.4208e-06	65905
bin	2.492e-06	62752
bin	2.5632e-06	60417
bin	2.6344e-06	57498
bin	2.7056e-06	54025
bin	2.7768e-06	51785
bin	2.848e-06	47934
bin	2.9192e-06	45828
bin	2.9904e-06	43102
bin	3.0616e-06	41124
bin	3.1328e-06	38393
bin	3.204e-06	36762
bin	3.2752e-06	34572
bin	3.3464e-06	32685
bin	3.4176e-06	30678
bin	3.4888e-06	28644
bin	3.56e-06	26773
bin	3.6312e-06	25063
bin	3.7024e-06	23846
bin	3.7736e-06	22465
bin	3.8448e-06	20582
bin	3.916e-06	19591
bin	3.9872e-06	18716
bin	4.0584e-06	17707
bin	4.1296e-06	17195
bin	4.2008e-06	16193
bin	4.272e-06	15407
bin	4.3432e-06	14870
bin	4.4144e-06	13871
bin	4.4856e-06	13470
bin	4.5568e-06	12766
bin	4.628e-06	12133
bin	4.6992e-06	11544
bin	4.7704e-06	10878
bin	4.8416e-06	10337
bin	4.9128e-06	10079
bin	4.984e-06	9594
bin	5.0552e-06	9173
bin	5.1264e-06	8719
bin	5.1976e-06	8538
bin	5.2688e-06	8211
bin	5.34e-06	7883
bin	5.4112e-06	7808
bin	5.4824e-06	7514
bin	5.5536e-06	7044
bin	5.6248e-06	6932
bin	5.696e-06	6741
bin	5.7672e-06	6400
bin	5.8384e-06	6224
bin	5.9096e-06	6005
bin	5.9808e-06	5918
bin	6.052e-06	5613
bin	6.1232e-06	5584
bin	6.1944e-06	5544
bin	6.2656e-06	5236
bin	6.3368e-06	5183
bin	6.408e-06	5204
bin	6.4792e-06	5033
bin	6.5504e-06	4923
bin	6.6216e-06	4710
bin	6.6928e-06	4609
bin	6.764e-06	4552
bin	6.8352e-06	4350
bin	6.9064e-06	4280
bin	6.9776e-06	4194
bin	7.0488e-06	4077
bin	7.12e-06	3929
bin	7.1912e-06	3923
bin	7.2624e-06	3748
bin	7.3336e-06	3640
bin	7.4048e-06	3642
bin	7.476e-06	3635
bin	7.5472e-06	3428
bin	7.6184e-06	3438
bin	7.6896e-06	3327
bin	7.7608e-06	3305
bin	7.832e-06	3303
bin	7.9032e-06	3209
bin	7.9744e-06	3216
bin	8.0456e-06	3226
bin	8.1168e-06	3102
bin	8.188e-06	3016
bin	8.2592e-06	3004
bin	8.3304e-06	2995
bin	8.4016e-06	2964
bin	8.4728e-06	2905
bin	8.544e-06	2912
bin	8.6152e-06	2852
bin	8.6864e-06	2712
bin	8.7576e-06	2796
bin	8.8288e-06	2620
bin	8.9e-06	2519
bin	8.9712e-06	2512
bin	9.0424e-06	2411
bin	9.1136e-06	2345
bin	9.1848e-06	2311
bin	9.256e-06	2235
bin	9.3272e-06	2251
bin	9.3984e-06	2181
bin	9.4696e-06	2153
bin	9.5408e-06	2119
bin	9.612e-06	2083
bin	9.6832e-06	2133
bin	9.7544e-06	2058
bin	9.8256e-06	2077
bin	9.8968e-06	2046
bin	9.968e-06	2018
bin	1.00392e-05	1954
bin	1.01104e-05	1951
bin	1.01816e-05	1906
bin	1.02528e-05	1842
bin	1.0324e-05	1834
bin	1.03952e-05	1819
bin	1.04664e-05	1773
bin	1.05376e-05	1764
bin	1.06088e-05	1747
bin	1.068e-05	1742
bin	1.07512e-05	1721
bin	1.08224e-05	1720
bin	1.08936e-05	1761
bin	1.09648e-05	1753
bin	1.1036e-05	1687
bin	1.11072e-05	1708
bin	1.11784e-05	1626
bin	1.12496e-05	1635
bin	1.13208e-05	1646
bin	1.1392e-05	1641
bin	1.14632e-05	1604
bin	1.15344e-05	1570
bin	1.16056e-05	1563
bin	1.16768e-05	1637
bin	1.1748e-05	1555
bin	1.18192e-05	1570
bin	1.18904e-05	1559
bin	1.19616e-05	1552
bin	1.20328e-05	1505
bin	1.2104e-05	1504
bin	1.21752e-05	1497
bin	1.22464e-05	1465
bin	1.23176e-05	1456
bin	1.23888e-05	1390
bin	1.246e-05	1515
bin	1.25312e-05	1452
bin	1.26024e-05	1430
bin	1.26736e-05	1437
bin	1.27448e-05	1376
bin	1.2816e-05	1415
bin	1.28872e-05	1372
bin	1.29584e-05	1287
bin	1.30296e-05	1428
bin	1.31008e-05	1353
bin	1.3172e-05	1393
bin	1.32432e-05	1365
bin	1.33144e-05	1286
bin	1.33856e-05	1300
bin	1.34568e-05	1247
bin	1.3528e-05	1254
bin	1.35992e-05	1235
bin	1.36704e-05	1248
bin	1.37416e-05	1242
bin	1.38128e-05	1276
bin	1.3884e-05	1197
bin	1.39552e-05	1238
bin	1.40264e-05	1256
bin	1.40976e-05	1238
bin	1.41688e-05	1207
bin	1.424e-05	1136
bin	1.43112e-05	1131
bin	1.43824e-05	1161
bin	1.44536e-05	1147
bin	1.45248e-05	1137
bin	1.4596e-05	1168
bin	1.46672e-05	1180
bin	1.47384e-05	1194
bin	1.48096e-05	1184
bin	1.48808e-05	1176
bin	1.4952e-05	1152
bin	1.50232e-05	1206
bin	1.50944e-05	1189
bin	1.51656e-05	1154
bin	1.52368e-05	1194
bin	1.5308e-05	1216
bin	1.53792e-05	1147
bin	1.54504e-05	1182
bin	1.55216e-05	1098
bin	1.55928e-05	1151
bin	1.5664e-05	1056
bin	1.57352e-05	1159
bin	1.58064e-05	1139
bin	1.58776e-05	1109
bin	1.59488e-05	1116
bin	1.602e-05	1183
bin	1.60912e-05	1115
bin	1.61624e-05	1117
bin	1.62336e-05	1171
bin	1.63048e-05	1093
bin	1.6376e-05	1093
bin	1.64472e-05	1051
bin	1.65184e-05	1084
bin	1.65896e-05	1027
bin	1.66608e-05	1098
bin	1.6732e-05	994
bin	1.68032e-05	1041
bin	1.68744e-05	1050
bin	1.69456e-05	1010
bin	1.70168e-05	1016
bin	1.7088e-05	937
bin	1.71592e-05	1005
bin	1.72304e-05	992
bin	1.73016e-05	998
bin	1.73728e-05	955
bin	1.7444e-05	1006
bin	1.75152e-05	975
bin	1.75864e-05	1003
bin	1.76576e-05	1034
bin	1.77288e-05	947
bin	1.78e-05	967
bin	1.78712e-05	949
bin	1.79424e-05	945
bin	1.80136e-05	978
bin	1.80848e-05	1021
bin	1.8156e-05	1022
bin	1.82272e-05	953
bin	1.82984e-05	910
bin	1.83696e-05	871
bin	1.84408e-05	890
bin	1.8512e-05	870
bin	1.85832e-05	886
bin	1.86544e-05	940
bin	1.87256e-05	948
bin	1.87968e-05	903
bin	1.8868e-05	910
bin	1.89392e-05	919
bin	1.90104e-05	941
bin	1.90816e-05	917
bin	1.91528e-05	964
bin	1.9224e-05	915
bin	1.92952e-05	934
bin	1.93664e-05	905
bin	1.94376e-05	919
bin	1.95088e-05	900
bin	1.958e-05	842
bin	1.96512e-05	867
bin	1.97224e-05	804
bin	1.97936e-05	897
bin	1.98648e-05	836
bin	1.9936e-05	855
bin	2.00072e-05	851
bin	2.00784e-05	857
bin	2.01496e-05	794
bin	2.02208e-05	803
bin	2.0292e-05	887
bin	2.03632e-05	944
bin	2.04344e-05	885
bin	2.05056e-05	888
bin	2.05768e-05	912
bin	2.0648e-05	911
bin	2.07192e-05	803
bin	2.07904e-05	856
bin	2.08616e-05	809
bin	2.09328e-05	789
bin	2.1004e-05	820
bin	2.10752e-05	787
bin	2.11464e-05	752
bin	2.12176e-05	775
bin	2.12888e-05	787
bin	2.136e-05	762
bin	2.14312e-05	774
bin	2.15024e-05	737
bin	2.15736e-05	805
bin	2.16448e-05	832
bin	2.1716e-05	788
bin	2.17872e-05	829
bin	2.18584e-05	820
bin	2.19296e-05	816
bin	2.20008e-05	773
bin	2.2072e-05	772
bin	2.21432e-05	751
bin	2.22144e-05	810
bin	2.22856e-05	804
bin	2.23568e-05	791
bin	2.2428e-05	832
bin	2.24992e-05	780
bin	2.25704e-05	795
bin	2.26416e-05	754
bin	2.27128e-05	716
bin	2.2784e-05	695
bin	2.28552e-05	750
bin	2.29264e-05	735
bin	2.29976e-05	779
bin	2.30688e-05	813
bin	2.314e-05	814
bin	2.32112e-05	757
bin	2.32824e-05	765
bin	2.33536e-05	764
bin	2.34248e-05	775
bin	2.3496e-05	751
bin	2.35672e-05	720
bin	2.36384e-05	759
bin	2.37096e-05	695
bin	2.37808e-05	745
bin	2.3852e-05	765
bin	2.39232e-05	726
bin	2.39944e-05	719
bin	2.40656e-05	707
bin	2.41368e-05	660
bin	2.4208e-05	713
bin	2.42792e-05	702
bin	2.43504e-05	751
bin	2.44216e-05	743
bin	2.44928e-05	737
bin	2.4564e-05	746
bin	2.46352e-05	747
bin	2.47064e-05	805
bin	2.47776e-05	761
bin	2.48488e-05	775
bin	2.492e-05	771
bin	2.49912e-05	734
bin	2.50624e-05	707
bin	2.51336e-05	726
bin	2.52048e-05	750
bin	2.5276e-05	757
bin	2.53472e-05	781
bin	2.54184e-05	719
bin	2.54896e-05	769
bin	2.55608e-05	726
bin	2.5632e-05	778
bin	2.57032e-05	738
bin	2.57744e-05	750
bin	2.58456e-05	739
bin	2.59168e-05	748
bin	2.5988e-05	718
bin	2.60592e-05	729
bin	2.61304e-05	692
bin	2.62016e-05	705
bin	2.62728e-05	658
bin	2.6344e-05	654
bin	2.64152e-05	692
bin	2.64864e-05	662
bin	2.65576e-05	646
bin	2.66288e-05	669
bin	2.67e-05	676
bin	2.67712e-05	682
bin	2.68424e-05	684
bin	2.69136e-05	718
bin	2.69848e-05	760
bin	2.7056e-05	701
bin	2.71272e-05	735
bin	2.71984e-05	687
bin	2.72696e-05	712
bin	2.73408e-05	731
bin	2.7412e-05	697
bin	2.74832e-05	737
bin	2.75544e-05	753
bin	2.76256e-05	729
bin	2.76968e-05	716
bin	2.7768e-05	687
bin	2.78392e-05	732
bin	2.79104e-05	690
bin	2.79816e-05	675
bin	2.80528e-05	660
bin	2.8124e-05	632
bin	2.81952e-05	686
bin	2.82664e-05	674
bin	2.83376e-05	677
bin	2.84088e-05	700
bin	2.848e-05	717
bin	2.85512e-05	738
bin	2.86224e-05	755
bin	2.86936e-05	735
bin	2.87648e-05	722
bin	2.8836e-05	715
bin	2.89072e-05	700
bin	2.89784e-05	742
bin	2.90496e-05	720
bin	2.91208e-05	678
bin	2.9192e-05	680
bin	2.92632e-05	698
bin	2.93344e-05	667
bin	2.94056e-05	702
bin	2.94768e-05	665
bin	2.9548e-05	647
bin	2.96192e-05	668
bin	2.96904e-05	601
bin	2.97616e-05	660
bin	2.98328e-05	636
bin	2.9904e-05	672
bin	2.99752e-05	720
bin	3.00464e-05	712
bin	3.01176e-05	684
bin	3.01888e-05	695
bin	3.026e-05	715
bin	3.03312e-05	761
bin	3.04024e-05	734
bin	3.04736e-05	679
bin	3.05448e-05	712
bin	3.0616e-05	657
bin	3.06872e-05	637
bin	3.07584e-05	661
bin	3.08296e-05	677
bin	3.09008e-05	654
bin	3.0972e-05	689
bin	3.10432e-05	668
bin	3.11144e-05	657
bin	3.11856e-05	649
bin	3.12568e-05	665
bin	3.1328e-05	669
bin	3.13992e-05	688
bin	3.14704e-05	641
bin	3.15416e-05	719
bin	3.16128e-05	699
bin	3.1684e-05	702
bin	3.17552e-05	735
bin	3.18264e-05	748
bin	3.18976e-05	724
bin	3.19688e-05	730
bin	3.204e-05	719
bin	3.21112e-05	710
bin	3.21824e-05	667
bin	3.22536e-05	663
bin	3.23248e-05	715
bin	3.2396e-05	736
bin	3.24672e-05	688
bin	3.25384e-05	706
bin	3.26096e-05	698
bin	3.26808e-05	677
bin	3.2752e-05	674
bin	3.28232e-05	673
bin	3.28944e-05	685
bin	3.29656e-05	656
bin	3.30368e-05	664
bin	3.3108e-05	665
bin	3.31792e-05	700
bin	3.32504e-05	718
bin	3.33216e-05	730
bin	3.33928e-05	716
bin	3.3464e-05	741
bin	3.35352e-05	726
bin	3.36064e-05	738
bin	3.36776e-05	692
bin	3.37488e-05	731
bin	3.382e-05	705
bin	3.38912e-05	728
bin	3.39624e-05	675
bin	3.40336e-05	703
bin	3.41048e-05	698
bin	3.4176e-05	697
bin	3.42472e-05	689
bin	3.43184e-05	695
bin	3.43896e-05	731
bin	3.44608e-05	727
bin	3.4532e-05	690
bin	3.46032e-05	667
bin	3.46744e-05	717
bin	3.47456e-05	696
bin	3.48168e-05	765
bin	3.4888e-05	711
bin	3.49592e-05	707
bin	3.50304e-05	686
bin	3.51016e-05	679
bin	3.51728e-05	699
bin	3.5244e-05	739
bin	3.53152e-05	650
bin	3.53864e-05	695
bin	3.54576e-05	684
bin	3.55288e-05	656
bin	3.56e-05	3156968
statistic Torus3d_bub.timer 	"Life Times"
field count 6291456
field mean 0.00094600521368529
field stddev 0.0010059484001389
field sum 5951.7501776716
field sqrsum 11.996912495695
field min 3.77331349e-07
field max 0.003624658333269
bin	-INF	0
bin	0	6018
bin	8.544e-07	8024
bin	1.7088e-06	9548
bin	2.5632e-06	12930
bin	3.4176e-06	16085
bin	4.272e-06	18980
bin	5.1264e-06	21820
bin	5.9808e-06	24420
bin	6.8352e-06	27597
bin	7.6896e-06	30792
bin	8.544e-06	33776
bin	9.3984e-06	35986
bin	1.02528e-05	32481
bin	1.11072e-05	32399
bin	1.19616e-05	34078
bin	1.2816e-05	35859
bin	1.36704e-05	37650
bin	1.45248e-05	39479
bin	1.53792e-05	41181
bin	1.62336e-05	42953
bin	1.7088e-05	44444
bin	1.79424e-05	45085
bin	1.87968e-05	46632
bin	1.96512e-05	48171
bin	2.05056e-05	50589
bin	2.136e-05	51887
bin	2.22144e-05	54032
bin	2.30688e-05	56404
bin	2.39232e-05	59193
bin	2.47776e-05	61520
bin	2.5632e-05	63455
bin	2.64864e-05	65121
bin	2.73408e-05	66236
bin	2.81952e-05	66568
bin	2.90496e-05	65870
bin	2.9904e-05	65611
bin	3.07584e-05	64457
bin	3.16128e-05	63325
bin	3.24672e-05	62650
bin	3.33216e-05	61494
bin	3.4176e-05	59827
bin	3.50304e-05	58620
bin	3.58848e-05	56657
bin	3.67392e-05	55201
bin	3.75936e-05	53219
bin	3.8448e-05	51086
bin	3.93024e-05	50033
bin	4.01568e-05	48195
bin	4.10112e-05	46211
bin	4.18656e-05	43080
bin	4.272e-05	38721
bin	4.35744e-05	34985
bin	4.44288e-05	31194
bin	4.52832e-05	28041
bin	4.61376e-05	24999
bin	4.6992e-05	21879
bin	4.78464e-05	19107
bin	4.87008e-05	16806
bin	4.95552e-05	14669
bin	5.04096e-05	12803
bin	5.1264e-05	11159
bin	5.21184e-05	9696
bin	5.29728e-05	8723
bin	5.38272e-05	7909
bin	5.46816e-05	7518
bin	5.5536e-05	6875
bin	5.63904e-05	6313
bin	5.72448e-05	6017
bin	5.80992e-05	5828
bin	5.89536e-05	5546
bin	5.9808e-05	5469
bin	6.06624e-05	5217
bin	6.15168e-05	5199
bin	6.23712e-05	5155
bin	6.32256e-05	4910
bin	6.408e-05	4882
bin	6.49344e-05	4802
bin	6.57888e-05	4793
bin	6.66432e-05	4799
bin	6.74976e-05	4822
bin	6.8352e-05	4785
bin	6.92064e-05	4734
bin	7.00608e-05	4877
bin	7.09152e-05	4845
bin	7.17696e-05	4932
bin	7.2624e-05	4999
bin	7.34784e-05	4951
bin	7.43328e-05	5132
bin	7.51872e-05	5056
bin	7.60416e-05	5115
bin	7.6896e-05	5114
bin	7.77504e-05	5222
bin	7.86048e-05	5226
bin	7.94592e-05	5315
bin	8.03136e-05	5412
bin	8.1168e-05	5556
bin	8.20224e-05	5476
bin	8.28768e-05	5824
bin	8.37312e-05	5627
bin	8.45856e-05	5488
bin	8.544e-05	5301
bin	8.62944e-05	5086
bin	8.71488e-05	4781
bin	8.80032e-05	4388
bin	8.88576e-05	3979
bin	8.9712e-05	3657
bin	9.05664e-05	3467
bin	9.14208e-05	3186
bin	9.22752e-05	2946
bin	9.31296e-05	2664
bin	9.3984e-05	2418
bin	9.48384e-05	2301
bin	9.56928e-05	2274
bin	9.65472e-05	2154
bin	9.74016e-05	2146
bin	9.8256e-05	2064
bin	9.91104e-05	2121
bin	9.99648e-05	2073
bin	0.0001008192	1971
bin	0.0001016736	1999
bin	0.000102528	2053
bin	0.0001033824	2048
bin	0.0001042368	2035
bin	0.0001050912	2052
bin	0.0001059456	2053
bin	0.0001068	2077
bin	0.0001076544	2136
bin	0.0001085088	2071
bin	0.0001093632	2098
bin	0.0001102176	2132
bin	0.000111072	2118
bin	0.0001119264	2155
bin	0.0001127808	2040
bin	0.0001136352	2140
bin	0.0001144896	2099
bin	0.000115344	2176
bin	0.0001161984	2177
bin	0.0001170528	2224
bin	0.0001179072	2295
bin	0.0001187616	2261
bin	0.000119616	2216
bin	0.0001204704	2235
bin	0.0001213248	2379
bin	0.0001221792	2315
bin	0.0001230336	2371
bin	0.000123888	2430
bin	0.0001247424	2403
bin	0.0001255968	2361
bin	0.0001264512	2341
bin	0.0001273056	2266
bin	0.00012816	2270
bin	0.0001290144	2129
bin	0.0001298688	2019
bin	0.0001307232	1912
bin	0.0001315776	1790
bin	0.000132432	1724
bin	0.0001332864	1634
bin	0.0001341408	1560
bin	0.0001349952	1454
bin	0.0001358496	1369
bin	0.000136704	1366
bin	0.0001375584	1349
bin	0.0001384128	1314
bin	0.0001392672	1269
bin	0.0001401216	1316
bin	0.000140976	1239
bin	0.0001418304	1252
bin	0.0001426848	1218
bin	0.0001435392	1232
bin	0.0001443936	1249
bin	0.000145248	1254
bin	0.0001461024	1314
bin	0.0001469568	1281
bin	0.0001478112	1266
bin	0.0001486656	1297
bin	0.00014952	1304
bin	0.0001503744	1303
bin	0.0001512288	1332
bin	0.0001520832	1342
bin	0.0001529376	1342
bin	0.000153792	1338
bin	0.0001546464	1445
bin	0.0001555008	1433
bin	0.0001563552	1382
bin	0.0001572096	1418
bin	0.000158064	1405
bin	0.0001589184	1452
bin	0.0001597728	1436
bin	0.0001606272	1407
bin	0.0001614816	1504
bin	0.000162336	1558
bin	0.0001631904	1578
bin	0.0001640448	1551
bin	0.0001648992	1549
bin	0.0001657536	1614
bin	0.000166608	1517
bin	0.0001674624	1460
bin	0.0001683168	1530
bin	0.0001691712	1330
bin	0.0001700256	1295
bin	0.00017088	1335
bin	0.0001717344	1256
bin	0.0001725888	1210
bin	0.0001734432	1138
bin	0.0001742976	1105
bin	0.000175152	1049
bin	0.0001760064	982
bin	0.0001768608	990
bin	0.0001777152	992
bin	0.0001785696	949
bin	0.000179424	931
bin	0.0001802784	952
bin	0.0001811328	969
bin	0.0001819872	952
bin	0.0001828416	910
bin	0.000183696	978
bin	0.0001845504	1007
bin	0.0001854048	951
bin	0.0001862592	936
bin	0.0001871136	959
bin	0.000187968	970
bin	0.0001888224	998
bin	0.0001896768	953
bin	0.0001905312	1007
bin	0.0001913856	1033
bin	0.00019224	1005
bin	0.0001930944	1005
bin	0.0001939488	1057
bin	0.0001948032	951
bin	0.0001956576	1053
bin	0.000196512	1006
bin	0.0001973664	1060
bin	0.0001982208	1061
bin	0.0001990752	1099
bin	0.0001999296	1094
bin	0.000200784	1080
bin	0.0002016384	1077
bin	0.0002024928	1068
bin	0.0002033472	1138
bin	0.0002042016	1111
bin	0.000205056	1133
bin	0.0002059104	1162
bin	0.0002067648	1204
bin	0.0002076192	1099
bin	0.0002084736	1116
bin	0.000209328	1098
bin	0.0002101824	994
bin	0.0002110368	1055
bin	0.0002118912	994
bin	0.0002127456	974
bin	0.0002136	865
bin	0.0002144544	898
bin	0.0002153088	843
bin	0.0002161632	819
bin	0.0002170176	851
bin	0.000217872	812
bin	0.0002187264	803
bin	0.0002195808	779
bin	0.0002204352	729
bin	0.0002212896	749
bin	0.000222144	694
bin	0.0002229984	733
bin	0.0002238528	793
bin	0.0002247072	789
bin	0.0002255616	805
bin	0.000226416	852
bin	0.0002272704	810
bin	0.0002281248	872
bin	0.0002289792	855
bin	0.0002298336	849
bin	0.000230688	835
bin	0.0002315424	823
bin	0.0002323968	830
bin	0.0002332512	824
bin	0.0002341056	805
bin	0.00023496	843
bin	0.0002358144	826
bin	0.0002366688	835
bin	0.0002375232	871
bin	0.0002383776	849
bin	0.000239232	895
bin	0.0002400864	883
bin	0.0002409408	875
bin	0.0002417952	881
bin	0.0002426496	912
bin	0.000243504	939
bin	0.0002443584	903
bin	0.0002452128	912
bin	0.0002460672	936
bin	0.0002469216	980
bin	0.000247776	952
bin	0.0002486304	861
bin	0.0002494848	920
bin	0.0002503392	889
bin	0.0002511936	879
bin	0.000252048	855
bin	0.0002529024	857
bin	0.0002537568	832
bin	0.0002546112	806
bin	0.0002554656	789
bin	0.00025632	771
bin	0.0002571744	732
bin	0.0002580288	734
bin	0.0002588832	731
bin	0.0002597376	698
bin	0.000260592	697
bin	0.0002614464	686
bin	0.0002623008	658
bin	0.0002631552	744
bin	0.0002640096	713
bin	0.000264864	675
bin	0.0002657184	682
bin	0.0002665728	690
bin	0.0002674272	783
bin	0.0002682816	746
bin	0.000269136	718
bin	0.0002699904	762
bin	0.0002708448	770
bin	0.0002716992	788
bin	0.0002725536	769
bin	0.000273408	754
bin	0.0002742624	723
bin	0.0002751168	721
bin	0.0002759712	741
bin	0.0002768256	780
bin	0.00027768	784
bin	0.0002785344	802
bin	0.0002793888	773
bin	0.0002802432	813
bin	0.0002810976	806
bin	0.000281952	834
bin	0.0002828064	818
bin	0.0002836608	841
bin	0.0002845152	863
bin	0.0002853696	811
bin	0.000286224	843
bin	0.0002870784	863
bin	0.0002879328	835
bin	0.0002887872	829
bin	0.0002896416	855
bin	0.000290496	832
bin	0.0002913504	786
bin	0.0002922048	772
bin	0.0002930592	731
bin	0.0002939136	716
bin	0.000294768	676
bin	0.0002956224	670
bin	0.0002964768	686
bin	0.0002973312	657
bin	0.0002981856	687
bin	0.00029904	719
bin	0.0002998944	692
bin	0.0003007488	693
bin	0.0003016032	685
bin	0.0003024576	708
bin	0.000303312	696
bin	0.0003041664	671
bin	0.0003050208	614
bin	0.0003058752	630
bin	0.0003067296	654
bin	0.000307584	690
bin	0.0003084384	696
bin	0.0003092928	677
bin	0.0003101472	712
bin	0.0003110016	668
bin	0.000311856	702
bin	0.0003127104	728
bin	0.0003135648	662
bin	0.0003144192	662
bin	0.0003152736	652
bin	0.000316128	680
bin	0.0003169824	717
bin	0.0003178368	661
bin	0.0003186912	678
bin	0.0003195456	656
bin	0.0003204	671
bin	0.0003212544	706
bin	0.0003221088	717
bin	0.0003229632	722
bin	0.0003238176	732
bin	0.000324672	765
bin	0.0003255264	749
bin	0.0003263808	791
bin	0.0003272352	727
bin	0.0003280896	747
bin	0.000328944	775
bin	0.0003297984	776
bin	0.0003306528	770
bin	0.0003315072	745
bin	0.0003323616	718
bin	0.000333216	752
bin	0.0003340704	750
bin	0.0003349248	717
bin	0.0003357792	706
bin	0.0003366336	716
bin	0.000337488	675
bin	0.0003383424	671
bin	0.0003391968	624
bin	0.0003400512	614
bin	0.0003409056	606
bin	0.00034176	585
bin	0.0003426144	606
bin	0.0003434688	589
bin	0.0003443232	621
bin	0.0003451776	585
bin	0.000346032	631
bin	0.0003468864	617
bin	0.0003477408	618
bin	0.0003485952	594
bin	0.0003494496	582
bin	0.000350304	591
bin	0.0003511584	608
bin	0.0003520128	604
bin	0.0003528672	621
bin	0.0003537216	637
bin	0.000354576	638
bin	0.0003554304	612
bin	0.0003562848	654
bin	0.0003571392	673
bin	0.0003579936	679
bin	0.000358848	697
bin	0.0003597024	669
bin	0.0003605568	670
bin	0.0003614112	674
bin	0.0003622656	656
bin	0.00036312	670
bin	0.0003639744	698
bin	0.0003648288	682
bin	0.0003656832	710
bin	0.0003665376	729
bin	0.000367392	697
bin	0.0003682464	697
bin	0.0003691008	730
bin	0.0003699552	758
bin	0.0003708096	707
bin	0.000371664	720
bin	0.0003725184	668
bin	0.0003733728	642
bin	0.0003742272	644
bin	0.0003750816	565
bin	0.000375936	564
bin	0.0003767904	574
bin	0.0003776448	572
bin	0.0003784992	574
bin	0.0003793536	570
bin	0.000380208	555
bin	0.0003810624	573
bin	0.0003819168	588
bin	0.0003827712	526
bin	0.0003836256	536
bin	0.00038448	550
bin	0.0003853344	544
bin	0.0003861888	538
bin	0.0003870432	592
bin	0.0003878976	577
bin	0.000388752	563
bin	0.0003896064	610
bin	0.0003904608	634
bin	0.0003913152	577
bin	0.0003921696	590
bin	0.000393024	583
bin	0.0003938784	606
bin	0.0003947328	568
bin	0.0003955872	550
bin	0.0003964416	572
bin	0.000397296	590
bin	0.0003981504	622
bin	0.0003990048	533
bin	0.0003998592	618
bin	0.0004007136	582
bin	0.000401568	580
bin	0.0004024224	553
bin	0.0004032768	651
bin	0.0004041312	609
bin	0.0004049856	627
bin	0.00040584	628
bin	0.0004066944	612
bin	0.0004075488	621
bin	0.0004084032	605
bin	0.0004092576	652
bin	0.000410112	686
bin	0.0004109664	625
bin	0.0004118208	644
bin	0.0004126752	649
bin	0.0004135296	642
bin	0.000414384	654
bin	0.0004152384	654
bin	0.0004160928	627
bin	0.0004169472	655
bin	0.0004178016	629
bin	0.000418656	613
bin	0.0004195104	583
bin	0.0004203648	575
bin	0.0004212192	567
bin	0.0004220736	577
bin	0.000422928	560
bin	0.0004237824	574
bin	0.0004246368	562
bin	0.0004254912	530
bin	0.0004263456	545
bin	0.0004272	3163525
