version 2
run Transposition-34-20120710-10:43:35-25357
attr alg 2
attr buf 8
attr configname Transposition
attr datetime 20120710-10:43:35
attr delta 0.8
attr experiment Transposition
attr ext true
attr inifile altro.ini
attr iterationvars "$buf=8, $ext=true, $ofedge=2, $delta=0.8, $alg=2"
attr iterationvars2 "$buf=8, $ext=true, $ofedge=2, $delta=0.8, $alg=2, $repetition=0"
attr measurement "$buf=8, $ext=true, $ofedge=2, $delta=0.8, $alg=2"
attr network Torus3d_bub
attr ofedge 2
attr processid 25357
attr repetition 0
attr replication #0
attr resultdir altro-results
attr runnumber 34
attr seedset 34

scalar . 	alg 	2
scalar . 	buf 	8
scalar . 	delta 	0.8
scalar . 	ofedge 	2
scalar Torus3d_bub.timer 	#endTime 	0.004349940666618
scalar Torus3d_bub.timer 	#totalHops 	89209728
scalar Torus3d_bub.timer 	#totalPacks 	6291456
scalar Torus3d_bub.timer 	#totalDerouted 	1879118
scalar Torus3d_bub.timer 	#totalOutFlanked 	0
scalar Torus3d_bub.timer 	#totalCQRed 	1879118
scalar Torus3d_bub.timer 	#LB 	0.000786432
scalar Torus3d_bub.timer 	#ratio 	0.18079143148668
statistic Torus3d_bub.timer 	"Hop Times"
field count 6193152
field mean 0.00011125393451737
field stddev 8.585676224467e-05
field sum 689.01252706412
field sqrsum 0.12230744642466
field min 3.97925925e-07
field max 0.000856962866666
bin	-INF	0
bin	0	0
bin	7.12e-08	0
bin	1.424e-07	0
bin	2.136e-07	0
bin	2.848e-07	0
bin	3.56e-07	29
bin	4.272e-07	780
bin	4.984e-07	1682
bin	5.696e-07	2919
bin	6.408e-07	4540
bin	7.12e-07	6503
bin	7.832e-07	8040
bin	8.544e-07	9363
bin	9.256e-07	10675
bin	9.968e-07	12143
bin	1.068e-06	13266
bin	1.1392e-06	14054
bin	1.2104e-06	15445
bin	1.2816e-06	16625
bin	1.3528e-06	18521
bin	1.424e-06	20585
bin	1.4952e-06	22828
bin	1.5664e-06	24916
bin	1.6376e-06	26442
bin	1.7088e-06	27695
bin	1.78e-06	28252
bin	1.8512e-06	29128
bin	1.9224e-06	29113
bin	1.9936e-06	29395
bin	2.0648e-06	29201
bin	2.136e-06	28689
bin	2.2072e-06	28312
bin	2.2784e-06	27576
bin	2.3496e-06	26683
bin	2.4208e-06	25947
bin	2.492e-06	25069
bin	2.5632e-06	24125
bin	2.6344e-06	23195
bin	2.7056e-06	22121
bin	2.7768e-06	21358
bin	2.848e-06	20264
bin	2.9192e-06	19712
bin	2.9904e-06	18768
bin	3.0616e-06	17884
bin	3.1328e-06	17241
bin	3.204e-06	16220
bin	3.2752e-06	15481
bin	3.3464e-06	14829
bin	3.4176e-06	14135
bin	3.4888e-06	13462
bin	3.56e-06	12967
bin	3.6312e-06	12269
bin	3.7024e-06	11899
bin	3.7736e-06	11237
bin	3.8448e-06	10833
bin	3.916e-06	10255
bin	3.9872e-06	9625
bin	4.0584e-06	9322
bin	4.1296e-06	8992
bin	4.2008e-06	8586
bin	4.272e-06	8221
bin	4.3432e-06	7948
bin	4.4144e-06	7524
bin	4.4856e-06	7291
bin	4.5568e-06	6829
bin	4.628e-06	6777
bin	4.6992e-06	6672
bin	4.7704e-06	6509
bin	4.8416e-06	6272
bin	4.9128e-06	6151
bin	4.984e-06	6043
bin	5.0552e-06	5798
bin	5.1264e-06	5694
bin	5.1976e-06	5541
bin	5.2688e-06	5354
bin	5.34e-06	5259
bin	5.4112e-06	5160
bin	5.4824e-06	4954
bin	5.5536e-06	4972
bin	5.6248e-06	4872
bin	5.696e-06	4886
bin	5.7672e-06	4793
bin	5.8384e-06	4726
bin	5.9096e-06	4466
bin	5.9808e-06	4503
bin	6.052e-06	4416
bin	6.1232e-06	4351
bin	6.1944e-06	4439
bin	6.2656e-06	4278
bin	6.3368e-06	4134
bin	6.408e-06	4233
bin	6.4792e-06	4077
bin	6.5504e-06	4067
bin	6.6216e-06	3911
bin	6.6928e-06	3717
bin	6.764e-06	3624
bin	6.8352e-06	3589
bin	6.9064e-06	3523
bin	6.9776e-06	3474
bin	7.0488e-06	3443
bin	7.12e-06	3379
bin	7.1912e-06	3232
bin	7.2624e-06	3076
bin	7.3336e-06	3103
bin	7.4048e-06	2938
bin	7.476e-06	2917
bin	7.5472e-06	2914
bin	7.6184e-06	2855
bin	7.6896e-06	2874
bin	7.7608e-06	2755
bin	7.832e-06	2746
bin	7.9032e-06	2736
bin	7.9744e-06	2670
bin	8.0456e-06	2599
bin	8.1168e-06	2520
bin	8.188e-06	2485
bin	8.2592e-06	2449
bin	8.3304e-06	2457
bin	8.4016e-06	2391
bin	8.4728e-06	2350
bin	8.544e-06	2367
bin	8.6152e-06	2434
bin	8.6864e-06	2310
bin	8.7576e-06	2315
bin	8.8288e-06	2319
bin	8.9e-06	2259
bin	8.9712e-06	2311
bin	9.0424e-06	2305
bin	9.1136e-06	2232
bin	9.1848e-06	2282
bin	9.256e-06	2236
bin	9.3272e-06	2167
bin	9.3984e-06	2155
bin	9.4696e-06	2167
bin	9.5408e-06	2107
bin	9.612e-06	2120
bin	9.6832e-06	2160
bin	9.7544e-06	2166
bin	9.8256e-06	2158
bin	9.8968e-06	2228
bin	9.968e-06	2135
bin	1.00392e-05	2152
bin	1.01104e-05	2131
bin	1.01816e-05	2061
bin	1.02528e-05	2024
bin	1.0324e-05	1981
bin	1.03952e-05	1953
bin	1.04664e-05	1869
bin	1.05376e-05	1975
bin	1.06088e-05	1871
bin	1.068e-05	1885
bin	1.07512e-05	1801
bin	1.08224e-05	1852
bin	1.08936e-05	1785
bin	1.09648e-05	1758
bin	1.1036e-05	1704
bin	1.11072e-05	1739
bin	1.11784e-05	1679
bin	1.12496e-05	1747
bin	1.13208e-05	1770
bin	1.1392e-05	1761
bin	1.14632e-05	1760
bin	1.15344e-05	1775
bin	1.16056e-05	1800
bin	1.16768e-05	1759
bin	1.1748e-05	1774
bin	1.18192e-05	1734
bin	1.18904e-05	1817
bin	1.19616e-05	1789
bin	1.20328e-05	1740
bin	1.2104e-05	1764
bin	1.21752e-05	1659
bin	1.22464e-05	1645
bin	1.23176e-05	1739
bin	1.23888e-05	1722
bin	1.246e-05	1726
bin	1.25312e-05	1711
bin	1.26024e-05	1659
bin	1.26736e-05	1640
bin	1.27448e-05	1559
bin	1.2816e-05	1583
bin	1.28872e-05	1497
bin	1.29584e-05	1517
bin	1.30296e-05	1574
bin	1.31008e-05	1560
bin	1.3172e-05	1524
bin	1.32432e-05	1495
bin	1.33144e-05	1561
bin	1.33856e-05	1537
bin	1.34568e-05	1489
bin	1.3528e-05	1533
bin	1.35992e-05	1529
bin	1.36704e-05	1422
bin	1.37416e-05	1429
bin	1.38128e-05	1418
bin	1.3884e-05	1386
bin	1.39552e-05	1379
bin	1.40264e-05	1431
bin	1.40976e-05	1404
bin	1.41688e-05	1338
bin	1.424e-05	1323
bin	1.43112e-05	1353
bin	1.43824e-05	1332
bin	1.44536e-05	1320
bin	1.45248e-05	1290
bin	1.4596e-05	1247
bin	1.46672e-05	1341
bin	1.47384e-05	1264
bin	1.48096e-05	1277
bin	1.48808e-05	1290
bin	1.4952e-05	1298
bin	1.50232e-05	1250
bin	1.50944e-05	1192
bin	1.51656e-05	1266
bin	1.52368e-05	1236
bin	1.5308e-05	1241
bin	1.53792e-05	1249
bin	1.54504e-05	1259
bin	1.55216e-05	1306
bin	1.55928e-05	1291
bin	1.5664e-05	1332
bin	1.57352e-05	1325
bin	1.58064e-05	1280
bin	1.58776e-05	1262
bin	1.59488e-05	1221
bin	1.602e-05	1271
bin	1.60912e-05	1286
bin	1.61624e-05	1304
bin	1.62336e-05	1284
bin	1.63048e-05	1246
bin	1.6376e-05	1267
bin	1.64472e-05	1342
bin	1.65184e-05	1204
bin	1.65896e-05	1266
bin	1.66608e-05	1281
bin	1.6732e-05	1184
bin	1.68032e-05	1162
bin	1.68744e-05	1177
bin	1.69456e-05	1186
bin	1.70168e-05	1156
bin	1.7088e-05	1181
bin	1.71592e-05	1164
bin	1.72304e-05	1067
bin	1.73016e-05	1065
bin	1.73728e-05	1037
bin	1.7444e-05	1056
bin	1.75152e-05	1054
bin	1.75864e-05	1133
bin	1.76576e-05	1168
bin	1.77288e-05	1122
bin	1.78e-05	1215
bin	1.78712e-05	1158
bin	1.79424e-05	1132
bin	1.80136e-05	1110
bin	1.80848e-05	1162
bin	1.8156e-05	1215
bin	1.82272e-05	1217
bin	1.82984e-05	1246
bin	1.83696e-05	1237
bin	1.84408e-05	1227
bin	1.8512e-05	1246
bin	1.85832e-05	1235
bin	1.86544e-05	1252
bin	1.87256e-05	1249
bin	1.87968e-05	1147
bin	1.8868e-05	1157
bin	1.89392e-05	1141
bin	1.90104e-05	1096
bin	1.90816e-05	1063
bin	1.91528e-05	1122
bin	1.9224e-05	1109
bin	1.92952e-05	1065
bin	1.93664e-05	1157
bin	1.94376e-05	1116
bin	1.95088e-05	1140
bin	1.958e-05	1080
bin	1.96512e-05	1063
bin	1.97224e-05	1086
bin	1.97936e-05	1014
bin	1.98648e-05	1003
bin	1.9936e-05	1031
bin	2.00072e-05	977
bin	2.00784e-05	1010
bin	2.01496e-05	1013
bin	2.02208e-05	1003
bin	2.0292e-05	996
bin	2.03632e-05	988
bin	2.04344e-05	919
bin	2.05056e-05	928
bin	2.05768e-05	866
bin	2.0648e-05	926
bin	2.07192e-05	942
bin	2.07904e-05	992
bin	2.08616e-05	977
bin	2.09328e-05	909
bin	2.1004e-05	953
bin	2.10752e-05	915
bin	2.11464e-05	965
bin	2.12176e-05	973
bin	2.12888e-05	944
bin	2.136e-05	941
bin	2.14312e-05	921
bin	2.15024e-05	950
bin	2.15736e-05	880
bin	2.16448e-05	904
bin	2.1716e-05	916
bin	2.17872e-05	914
bin	2.18584e-05	871
bin	2.19296e-05	936
bin	2.20008e-05	906
bin	2.2072e-05	877
bin	2.21432e-05	863
bin	2.22144e-05	871
bin	2.22856e-05	868
bin	2.23568e-05	916
bin	2.2428e-05	860
bin	2.24992e-05	920
bin	2.25704e-05	920
bin	2.26416e-05	893
bin	2.27128e-05	875
bin	2.2784e-05	915
bin	2.28552e-05	920
bin	2.29264e-05	827
bin	2.29976e-05	896
bin	2.30688e-05	855
bin	2.314e-05	855
bin	2.32112e-05	890
bin	2.32824e-05	919
bin	2.33536e-05	914
bin	2.34248e-05	873
bin	2.3496e-05	905
bin	2.35672e-05	863
bin	2.36384e-05	865
bin	2.37096e-05	861
bin	2.37808e-05	838
bin	2.3852e-05	867
bin	2.39232e-05	884
bin	2.39944e-05	874
bin	2.40656e-05	922
bin	2.41368e-05	909
bin	2.4208e-05	978
bin	2.42792e-05	922
bin	2.43504e-05	958
bin	2.44216e-05	913
bin	2.44928e-05	907
bin	2.4564e-05	903
bin	2.46352e-05	952
bin	2.47064e-05	911
bin	2.47776e-05	907
bin	2.48488e-05	934
bin	2.492e-05	891
bin	2.49912e-05	960
bin	2.50624e-05	905
bin	2.51336e-05	955
bin	2.52048e-05	965
bin	2.5276e-05	987
bin	2.53472e-05	947
bin	2.54184e-05	956
bin	2.54896e-05	927
bin	2.55608e-05	940
bin	2.5632e-05	932
bin	2.57032e-05	936
bin	2.57744e-05	961
bin	2.58456e-05	960
bin	2.59168e-05	968
bin	2.5988e-05	960
bin	2.60592e-05	947
bin	2.61304e-05	911
bin	2.62016e-05	918
bin	2.62728e-05	909
bin	2.6344e-05	961
bin	2.64152e-05	979
bin	2.64864e-05	882
bin	2.65576e-05	902
bin	2.66288e-05	920
bin	2.67e-05	907
bin	2.67712e-05	912
bin	2.68424e-05	868
bin	2.69136e-05	925
bin	2.69848e-05	965
bin	2.7056e-05	928
bin	2.71272e-05	948
bin	2.71984e-05	910
bin	2.72696e-05	874
bin	2.73408e-05	907
bin	2.7412e-05	885
bin	2.74832e-05	860
bin	2.75544e-05	874
bin	2.76256e-05	920
bin	2.76968e-05	924
bin	2.7768e-05	896
bin	2.78392e-05	883
bin	2.79104e-05	932
bin	2.79816e-05	958
bin	2.80528e-05	975
bin	2.8124e-05	959
bin	2.81952e-05	913
bin	2.82664e-05	915
bin	2.83376e-05	926
bin	2.84088e-05	919
bin	2.848e-05	910
bin	2.85512e-05	873
bin	2.86224e-05	871
bin	2.86936e-05	849
bin	2.87648e-05	835
bin	2.8836e-05	869
bin	2.89072e-05	849
bin	2.89784e-05	892
bin	2.90496e-05	888
bin	2.91208e-05	929
bin	2.9192e-05	939
bin	2.92632e-05	901
bin	2.93344e-05	949
bin	2.94056e-05	956
bin	2.94768e-05	982
bin	2.9548e-05	972
bin	2.96192e-05	960
bin	2.96904e-05	958
bin	2.97616e-05	920
bin	2.98328e-05	926
bin	2.9904e-05	937
bin	2.99752e-05	946
bin	3.00464e-05	942
bin	3.01176e-05	935
bin	3.01888e-05	936
bin	3.026e-05	934
bin	3.03312e-05	925
bin	3.04024e-05	980
bin	3.04736e-05	978
bin	3.05448e-05	955
bin	3.0616e-05	933
bin	3.06872e-05	996
bin	3.07584e-05	956
bin	3.08296e-05	947
bin	3.09008e-05	952
bin	3.0972e-05	974
bin	3.10432e-05	1004
bin	3.11144e-05	986
bin	3.11856e-05	969
bin	3.12568e-05	972
bin	3.1328e-05	1038
bin	3.13992e-05	1050
bin	3.14704e-05	1057
bin	3.15416e-05	1013
bin	3.16128e-05	1028
bin	3.1684e-05	1039
bin	3.17552e-05	1075
bin	3.18264e-05	1020
bin	3.18976e-05	1042
bin	3.19688e-05	1011
bin	3.204e-05	943
bin	3.21112e-05	950
bin	3.21824e-05	958
bin	3.22536e-05	1041
bin	3.23248e-05	979
bin	3.2396e-05	988
bin	3.24672e-05	1038
bin	3.25384e-05	1084
bin	3.26096e-05	1056
bin	3.26808e-05	1004
bin	3.2752e-05	957
bin	3.28232e-05	982
bin	3.28944e-05	988
bin	3.29656e-05	998
bin	3.30368e-05	957
bin	3.3108e-05	937
bin	3.31792e-05	1002
bin	3.32504e-05	906
bin	3.33216e-05	984
bin	3.33928e-05	998
bin	3.3464e-05	931
bin	3.35352e-05	960
bin	3.36064e-05	915
bin	3.36776e-05	996
bin	3.37488e-05	976
bin	3.382e-05	938
bin	3.38912e-05	982
bin	3.39624e-05	964
bin	3.40336e-05	870
bin	3.41048e-05	902
bin	3.4176e-05	889
bin	3.42472e-05	991
bin	3.43184e-05	1000
bin	3.43896e-05	957
bin	3.44608e-05	909
bin	3.4532e-05	916
bin	3.46032e-05	893
bin	3.46744e-05	943
bin	3.47456e-05	910
bin	3.48168e-05	921
bin	3.4888e-05	890
bin	3.49592e-05	917
bin	3.50304e-05	972
bin	3.51016e-05	916
bin	3.51728e-05	946
bin	3.5244e-05	943
bin	3.53152e-05	920
bin	3.53864e-05	954
bin	3.54576e-05	911
bin	3.55288e-05	922
bin	3.56e-05	4552952
statistic Torus3d_bub.timer 	"Life Times"
field count 6291456
field mean 0.0015323168021576
field stddev 0.0011543628110422
field sum 9640.503738835
field sqrsum 23.156006237584
field min 3.77331845e-07
field max 0.004316743333189
bin	-INF	0
bin	0	6144
bin	8.544e-07	8192
bin	1.7088e-06	8539
bin	2.5632e-06	9292
bin	3.4176e-06	10242
bin	4.272e-06	11197
bin	5.1264e-06	12428
bin	5.9808e-06	13661
bin	6.8352e-06	15088
bin	7.6896e-06	16229
bin	8.544e-06	17653
bin	9.3984e-06	19500
bin	1.02528e-05	14640
bin	1.11072e-05	13682
bin	1.19616e-05	14704
bin	1.2816e-05	15698
bin	1.36704e-05	16477
bin	1.45248e-05	17439
bin	1.53792e-05	18358
bin	1.62336e-05	19088
bin	1.7088e-05	19869
bin	1.79424e-05	20325
bin	1.87968e-05	20824
bin	1.96512e-05	21696
bin	2.05056e-05	22424
bin	2.136e-05	23089
bin	2.22144e-05	23900
bin	2.30688e-05	24596
bin	2.39232e-05	25281
bin	2.47776e-05	26298
bin	2.5632e-05	26955
bin	2.64864e-05	28254
bin	2.73408e-05	28657
bin	2.81952e-05	29027
bin	2.90496e-05	29325
bin	2.9904e-05	29492
bin	3.07584e-05	29333
bin	3.16128e-05	28566
bin	3.24672e-05	27317
bin	3.33216e-05	25704
bin	3.4176e-05	24093
bin	3.50304e-05	22406
bin	3.58848e-05	20962
bin	3.67392e-05	19682
bin	3.75936e-05	18221
bin	3.8448e-05	16534
bin	3.93024e-05	15148
bin	4.01568e-05	13780
bin	4.10112e-05	12527
bin	4.18656e-05	11233
bin	4.272e-05	10419
bin	4.35744e-05	9620
bin	4.44288e-05	9091
bin	4.52832e-05	8603
bin	4.61376e-05	8127
bin	4.6992e-05	7670
bin	4.78464e-05	7274
bin	4.87008e-05	7015
bin	4.95552e-05	6673
bin	5.04096e-05	6390
bin	5.1264e-05	6427
bin	5.21184e-05	6233
bin	5.29728e-05	6231
bin	5.38272e-05	6172
bin	5.46816e-05	5957
bin	5.5536e-05	5952
bin	5.63904e-05	5880
bin	5.72448e-05	5985
bin	5.80992e-05	5943
bin	5.89536e-05	6034
bin	5.9808e-05	5961
bin	6.06624e-05	5896
bin	6.15168e-05	5939
bin	6.23712e-05	6081
bin	6.32256e-05	5830
bin	6.408e-05	5844
bin	6.49344e-05	5597
bin	6.57888e-05	5561
bin	6.66432e-05	5207
bin	6.74976e-05	5188
bin	6.8352e-05	4927
bin	6.92064e-05	4695
bin	7.00608e-05	4571
bin	7.09152e-05	4310
bin	7.17696e-05	4000
bin	7.2624e-05	3873
bin	7.34784e-05	3621
bin	7.43328e-05	3598
bin	7.51872e-05	3490
bin	7.60416e-05	3249
bin	7.6896e-05	3172
bin	7.77504e-05	3168
bin	7.86048e-05	3085
bin	7.94592e-05	2990
bin	8.03136e-05	2891
bin	8.1168e-05	2931
bin	8.20224e-05	2930
bin	8.28768e-05	2891
bin	8.37312e-05	2949
bin	8.45856e-05	2909
bin	8.544e-05	2937
bin	8.62944e-05	2964
bin	8.71488e-05	2906
bin	8.80032e-05	2962
bin	8.88576e-05	2924
bin	8.9712e-05	2992
bin	9.05664e-05	3017
bin	9.14208e-05	3043
bin	9.22752e-05	3180
bin	9.31296e-05	3091
bin	9.3984e-05	3115
bin	9.48384e-05	3076
bin	9.56928e-05	2969
bin	9.65472e-05	2844
bin	9.74016e-05	2889
bin	9.8256e-05	2751
bin	9.91104e-05	2678
bin	9.99648e-05	2662
bin	0.0001008192	2495
bin	0.0001016736	2441
bin	0.000102528	2321
bin	0.0001033824	2259
bin	0.0001042368	2154
bin	0.0001050912	2074
bin	0.0001059456	2060
bin	0.0001068	1975
bin	0.0001076544	1914
bin	0.0001085088	1901
bin	0.0001093632	1797
bin	0.0001102176	1839
bin	0.000111072	1883
bin	0.0001119264	1881
bin	0.0001127808	1849
bin	0.0001136352	1874
bin	0.0001144896	1823
bin	0.000115344	1867
bin	0.0001161984	1941
bin	0.0001170528	1961
bin	0.0001179072	2016
bin	0.0001187616	2043
bin	0.000119616	2031
bin	0.0001204704	2019
bin	0.0001213248	2005
bin	0.0001221792	2043
bin	0.0001230336	2163
bin	0.000123888	2070
bin	0.0001247424	2165
bin	0.0001255968	2180
bin	0.0001264512	2193
bin	0.0001273056	2159
bin	0.00012816	2177
bin	0.0001290144	2088
bin	0.0001298688	2069
bin	0.0001307232	2059
bin	0.0001315776	2040
bin	0.000132432	1919
bin	0.0001332864	1837
bin	0.0001341408	1712
bin	0.0001349952	1681
bin	0.0001358496	1679
bin	0.000136704	1652
bin	0.0001375584	1537
bin	0.0001384128	1588
bin	0.0001392672	1610
bin	0.0001401216	1563
bin	0.000140976	1594
bin	0.0001418304	1582
bin	0.0001426848	1598
bin	0.0001435392	1540
bin	0.0001443936	1513
bin	0.000145248	1503
bin	0.0001461024	1557
bin	0.0001469568	1619
bin	0.0001478112	1587
bin	0.0001486656	1609
bin	0.00014952	1606
bin	0.0001503744	1663
bin	0.0001512288	1653
bin	0.0001520832	1640
bin	0.0001529376	1607
bin	0.000153792	1704
bin	0.0001546464	1753
bin	0.0001555008	1729
bin	0.0001563552	1720
bin	0.0001572096	1717
bin	0.000158064	1691
bin	0.0001589184	1676
bin	0.0001597728	1687
bin	0.0001606272	1598
bin	0.0001614816	1598
bin	0.000162336	1562
bin	0.0001631904	1510
bin	0.0001640448	1459
bin	0.0001648992	1448
bin	0.0001657536	1372
bin	0.000166608	1366
bin	0.0001674624	1305
bin	0.0001683168	1305
bin	0.0001691712	1292
bin	0.0001700256	1260
bin	0.00017088	1190
bin	0.0001717344	1258
bin	0.0001725888	1208
bin	0.0001734432	1203
bin	0.0001742976	1201
bin	0.000175152	1291
bin	0.0001760064	1299
bin	0.0001768608	1367
bin	0.0001777152	1304
bin	0.0001785696	1314
bin	0.000179424	1292
bin	0.0001802784	1362
bin	0.0001811328	1345
bin	0.0001819872	1348
bin	0.0001828416	1321
bin	0.000183696	1312
bin	0.0001845504	1310
bin	0.0001854048	1336
bin	0.0001862592	1342
bin	0.0001871136	1317
bin	0.000187968	1260
bin	0.0001888224	1304
bin	0.0001896768	1296
bin	0.0001905312	1306
bin	0.0001913856	1301
bin	0.00019224	1234
bin	0.0001930944	1265
bin	0.0001939488	1231
bin	0.0001948032	1163
bin	0.0001956576	1150
bin	0.000196512	1121
bin	0.0001973664	1145
bin	0.0001982208	1055
bin	0.0001990752	1052
bin	0.0001999296	1046
bin	0.000200784	1048
bin	0.0002016384	1033
bin	0.0002024928	1003
bin	0.0002033472	1006
bin	0.0002042016	950
bin	0.000205056	980
bin	0.0002059104	971
bin	0.0002067648	976
bin	0.0002076192	933
bin	0.0002084736	948
bin	0.000209328	951
bin	0.0002101824	944
bin	0.0002110368	1011
bin	0.0002118912	1023
bin	0.0002127456	1045
bin	0.0002136	1041
bin	0.0002144544	1106
bin	0.0002153088	1082
bin	0.0002161632	1138
bin	0.0002170176	1163
bin	0.000217872	1182
bin	0.0002187264	1144
bin	0.0002195808	1118
bin	0.0002204352	1069
bin	0.0002212896	1095
bin	0.000222144	1073
bin	0.0002229984	1061
bin	0.0002238528	1062
bin	0.0002247072	1044
bin	0.0002255616	989
bin	0.000226416	1008
bin	0.0002272704	952
bin	0.0002281248	911
bin	0.0002289792	908
bin	0.0002298336	924
bin	0.000230688	954
bin	0.0002315424	917
bin	0.0002323968	897
bin	0.0002332512	921
bin	0.0002341056	891
bin	0.00023496	920
bin	0.0002358144	939
bin	0.0002366688	916
bin	0.0002375232	955
bin	0.0002383776	910
bin	0.000239232	968
bin	0.0002400864	962
bin	0.0002409408	986
bin	0.0002417952	912
bin	0.0002426496	995
bin	0.000243504	1028
bin	0.0002443584	938
bin	0.0002452128	890
bin	0.0002460672	997
bin	0.0002469216	979
bin	0.000247776	961
bin	0.0002486304	1015
bin	0.0002494848	1042
bin	0.0002503392	1047
bin	0.0002511936	1085
bin	0.000252048	1053
bin	0.0002529024	1066
bin	0.0002537568	1066
bin	0.0002546112	1089
bin	0.0002554656	1010
bin	0.00025632	954
bin	0.0002571744	947
bin	0.0002580288	921
bin	0.0002588832	894
bin	0.0002597376	875
bin	0.000260592	891
bin	0.0002614464	875
bin	0.0002623008	847
bin	0.0002631552	854
bin	0.0002640096	854
bin	0.000264864	803
bin	0.0002657184	823
bin	0.0002665728	875
bin	0.0002674272	813
bin	0.0002682816	792
bin	0.000269136	798
bin	0.0002699904	816
bin	0.0002708448	850
bin	0.0002716992	875
bin	0.0002725536	899
bin	0.000273408	919
bin	0.0002742624	870
bin	0.0002751168	942
bin	0.0002759712	959
bin	0.0002768256	938
bin	0.00027768	923
bin	0.0002785344	936
bin	0.0002793888	1011
bin	0.0002802432	973
bin	0.0002810976	996
bin	0.000281952	963
bin	0.0002828064	971
bin	0.0002836608	954
bin	0.0002845152	919
bin	0.0002853696	906
bin	0.000286224	893
bin	0.0002870784	842
bin	0.0002879328	805
bin	0.0002887872	793
bin	0.0002896416	816
bin	0.000290496	807
bin	0.0002913504	794
bin	0.0002922048	739
bin	0.0002930592	748
bin	0.0002939136	712
bin	0.000294768	749
bin	0.0002956224	779
bin	0.0002964768	850
bin	0.0002973312	799
bin	0.0002981856	783
bin	0.00029904	804
bin	0.0002998944	807
bin	0.0003007488	839
bin	0.0003016032	831
bin	0.0003024576	845
bin	0.000303312	818
bin	0.0003041664	840
bin	0.0003050208	799
bin	0.0003058752	820
bin	0.0003067296	868
bin	0.000307584	814
bin	0.0003084384	787
bin	0.0003092928	786
bin	0.0003101472	831
bin	0.0003110016	818
bin	0.000311856	844
bin	0.0003127104	873
bin	0.0003135648	895
bin	0.0003144192	871
bin	0.0003152736	872
bin	0.000316128	889
bin	0.0003169824	860
bin	0.0003178368	859
bin	0.0003186912	851
bin	0.0003195456	825
bin	0.0003204	816
bin	0.0003212544	788
bin	0.0003221088	755
bin	0.0003229632	804
bin	0.0003238176	795
bin	0.000324672	769
bin	0.0003255264	734
bin	0.0003263808	729
bin	0.0003272352	720
bin	0.0003280896	750
bin	0.000328944	724
bin	0.0003297984	754
bin	0.0003306528	751
bin	0.0003315072	765
bin	0.0003323616	742
bin	0.000333216	746
bin	0.0003340704	757
bin	0.0003349248	798
bin	0.0003357792	778
bin	0.0003366336	842
bin	0.000337488	837
bin	0.0003383424	910
bin	0.0003391968	902
bin	0.0003400512	853
bin	0.0003409056	850
bin	0.00034176	870
bin	0.0003426144	884
bin	0.0003434688	923
bin	0.0003443232	882
bin	0.0003451776	855
bin	0.000346032	825
bin	0.0003468864	823
bin	0.0003477408	844
bin	0.0003485952	815
bin	0.0003494496	801
bin	0.000350304	749
bin	0.0003511584	738
bin	0.0003520128	739
bin	0.0003528672	720
bin	0.0003537216	673
bin	0.000354576	716
bin	0.0003554304	728
bin	0.0003562848	762
bin	0.0003571392	747
bin	0.0003579936	760
bin	0.000358848	720
bin	0.0003597024	717
bin	0.0003605568	733
bin	0.0003614112	678
bin	0.0003622656	714
bin	0.00036312	727
bin	0.0003639744	740
bin	0.0003648288	741
bin	0.0003656832	769
bin	0.0003665376	769
bin	0.000367392	792
bin	0.0003682464	839
bin	0.0003691008	859
bin	0.0003699552	813
bin	0.0003708096	811
bin	0.000371664	822
bin	0.0003725184	869
bin	0.0003733728	847
bin	0.0003742272	836
bin	0.0003750816	849
bin	0.000375936	833
bin	0.0003767904	887
bin	0.0003776448	822
bin	0.0003784992	782
bin	0.0003793536	808
bin	0.000380208	758
bin	0.0003810624	764
bin	0.0003819168	754
bin	0.0003827712	786
bin	0.0003836256	793
bin	0.00038448	748
bin	0.0003853344	720
bin	0.0003861888	784
bin	0.0003870432	743
bin	0.0003878976	743
bin	0.000388752	728
bin	0.0003896064	723
bin	0.0003904608	714
bin	0.0003913152	746
bin	0.0003921696	799
bin	0.000393024	776
bin	0.0003938784	745
bin	0.0003947328	754
bin	0.0003955872	775
bin	0.0003964416	772
bin	0.000397296	767
bin	0.0003981504	765
bin	0.0003990048	769
bin	0.0003998592	797
bin	0.0004007136	780
bin	0.000401568	781
bin	0.0004024224	730
bin	0.0004032768	746
bin	0.0004041312	736
bin	0.0004049856	784
bin	0.00040584	760
bin	0.0004066944	782
bin	0.0004075488	760
bin	0.0004084032	783
bin	0.0004092576	711
bin	0.000410112	703
bin	0.0004109664	734
bin	0.0004118208	761
bin	0.0004126752	703
bin	0.0004135296	679
bin	0.000414384	680
bin	0.0004152384	679
bin	0.0004160928	705
bin	0.0004169472	642
bin	0.0004178016	658
bin	0.000418656	672
bin	0.0004195104	687
bin	0.0004203648	674
bin	0.0004212192	675
bin	0.0004220736	692
bin	0.000422928	651
bin	0.0004237824	651
bin	0.0004246368	700
bin	0.0004254912	689
bin	0.0004263456	716
bin	0.0004272	4589439
