version 2
run Transposition-54-20120710-13:34:19-25475
attr alg 2
attr buf 8
attr configname Transposition
attr datetime 20120710-13:34:19
attr delta 0.8
attr experiment Transposition
attr ext false
attr inifile altro.ini
attr iterationvars "$buf=8, $ext=false, $ofedge=1, $delta=0.8, $alg=2"
attr iterationvars2 "$buf=8, $ext=false, $ofedge=1, $delta=0.8, $alg=2, $repetition=0"
attr measurement "$buf=8, $ext=false, $ofedge=1, $delta=0.8, $alg=2"
attr network Torus3d_bub
attr ofedge 1
attr processid 25475
attr repetition 0
attr replication #0
attr resultdir altro-results
attr runnumber 54
attr seedset 54

scalar . 	alg 	2
scalar . 	buf 	8
scalar . 	delta 	0.8
scalar . 	ofedge 	1
scalar Torus3d_bub.timer 	#endTime 	0.004421136666666
scalar Torus3d_bub.timer 	#totalHops 	89382606
scalar Torus3d_bub.timer 	#totalPacks 	6291456
scalar Torus3d_bub.timer 	#totalDerouted 	1883965
scalar Torus3d_bub.timer 	#totalOutFlanked 	0
scalar Torus3d_bub.timer 	#totalCQRed 	1883965
scalar Torus3d_bub.timer 	#LB 	0.000786432
scalar Torus3d_bub.timer 	#ratio 	0.17788004743881
statistic Torus3d_bub.timer 	"Hop Times"
field count 6193152
field mean 0.00011371169108025
field stddev 8.7820699452104e-05
field sum 704.23378703703
field sqrsum 0.12784413866082
field min 3.74222222e-07
field max 0.000857135533333
bin	-INF	0
bin	0	0
bin	7.12e-08	0
bin	1.424e-07	0
bin	2.136e-07	0
bin	2.848e-07	0
bin	3.56e-07	268
bin	4.272e-07	1011
bin	4.984e-07	1856
bin	5.696e-07	3070
bin	6.408e-07	4889
bin	7.12e-07	6490
bin	7.832e-07	8276
bin	8.544e-07	9667
bin	9.256e-07	10889
bin	9.968e-07	12256
bin	1.068e-06	13365
bin	1.1392e-06	14606
bin	1.2104e-06	15767
bin	1.2816e-06	17414
bin	1.3528e-06	18978
bin	1.424e-06	21532
bin	1.4952e-06	23195
bin	1.5664e-06	25459
bin	1.6376e-06	26924
bin	1.7088e-06	28111
bin	1.78e-06	28617
bin	1.8512e-06	29235
bin	1.9224e-06	29748
bin	1.9936e-06	29899
bin	2.0648e-06	29847
bin	2.136e-06	29174
bin	2.2072e-06	28812
bin	2.2784e-06	27978
bin	2.3496e-06	27049
bin	2.4208e-06	26228
bin	2.492e-06	25033
bin	2.5632e-06	24405
bin	2.6344e-06	23174
bin	2.7056e-06	22279
bin	2.7768e-06	21496
bin	2.848e-06	20614
bin	2.9192e-06	19884
bin	2.9904e-06	18829
bin	3.0616e-06	18204
bin	3.1328e-06	17358
bin	3.204e-06	16718
bin	3.2752e-06	16086
bin	3.3464e-06	15348
bin	3.4176e-06	14483
bin	3.4888e-06	13897
bin	3.56e-06	13270
bin	3.6312e-06	12410
bin	3.7024e-06	11804
bin	3.7736e-06	11304
bin	3.8448e-06	10706
bin	3.916e-06	9985
bin	3.9872e-06	9702
bin	4.0584e-06	9211
bin	4.1296e-06	8810
bin	4.2008e-06	8244
bin	4.272e-06	8116
bin	4.3432e-06	7621
bin	4.4144e-06	7293
bin	4.4856e-06	7244
bin	4.5568e-06	6798
bin	4.628e-06	6653
bin	4.6992e-06	6344
bin	4.7704e-06	6348
bin	4.8416e-06	6128
bin	4.9128e-06	5755
bin	4.984e-06	5684
bin	5.0552e-06	5595
bin	5.1264e-06	5433
bin	5.1976e-06	5341
bin	5.2688e-06	5242
bin	5.34e-06	5048
bin	5.4112e-06	4912
bin	5.4824e-06	4674
bin	5.5536e-06	4700
bin	5.6248e-06	4568
bin	5.696e-06	4587
bin	5.7672e-06	4467
bin	5.8384e-06	4340
bin	5.9096e-06	4416
bin	5.9808e-06	4252
bin	6.052e-06	4330
bin	6.1232e-06	4119
bin	6.1944e-06	4151
bin	6.2656e-06	4115
bin	6.3368e-06	4008
bin	6.408e-06	3847
bin	6.4792e-06	3834
bin	6.5504e-06	3645
bin	6.6216e-06	3636
bin	6.6928e-06	3501
bin	6.764e-06	3466
bin	6.8352e-06	3414
bin	6.9064e-06	3342
bin	6.9776e-06	3273
bin	7.0488e-06	3231
bin	7.12e-06	3109
bin	7.1912e-06	3092
bin	7.2624e-06	3005
bin	7.3336e-06	2975
bin	7.4048e-06	2810
bin	7.476e-06	2670
bin	7.5472e-06	2684
bin	7.6184e-06	2640
bin	7.6896e-06	2590
bin	7.7608e-06	2469
bin	7.832e-06	2570
bin	7.9032e-06	2534
bin	7.9744e-06	2439
bin	8.0456e-06	2441
bin	8.1168e-06	2394
bin	8.188e-06	2396
bin	8.2592e-06	2378
bin	8.3304e-06	2247
bin	8.4016e-06	2242
bin	8.4728e-06	2159
bin	8.544e-06	2098
bin	8.6152e-06	2081
bin	8.6864e-06	2115
bin	8.7576e-06	2182
bin	8.8288e-06	2067
bin	8.9e-06	2056
bin	8.9712e-06	2056
bin	9.0424e-06	2087
bin	9.1136e-06	2045
bin	9.1848e-06	2030
bin	9.256e-06	2102
bin	9.3272e-06	2043
bin	9.3984e-06	2051
bin	9.4696e-06	2015
bin	9.5408e-06	2063
bin	9.612e-06	2023
bin	9.6832e-06	2011
bin	9.7544e-06	2020
bin	9.8256e-06	2033
bin	9.8968e-06	1975
bin	9.968e-06	1945
bin	1.00392e-05	1901
bin	1.01104e-05	1962
bin	1.01816e-05	1879
bin	1.02528e-05	1931
bin	1.0324e-05	1849
bin	1.03952e-05	1894
bin	1.04664e-05	1882
bin	1.05376e-05	1843
bin	1.06088e-05	1802
bin	1.068e-05	1857
bin	1.07512e-05	1846
bin	1.08224e-05	1831
bin	1.08936e-05	1758
bin	1.09648e-05	1753
bin	1.1036e-05	1758
bin	1.11072e-05	1618
bin	1.11784e-05	1680
bin	1.12496e-05	1745
bin	1.13208e-05	1659
bin	1.1392e-05	1631
bin	1.14632e-05	1665
bin	1.15344e-05	1662
bin	1.16056e-05	1624
bin	1.16768e-05	1598
bin	1.1748e-05	1665
bin	1.18192e-05	1660
bin	1.18904e-05	1614
bin	1.19616e-05	1684
bin	1.20328e-05	1695
bin	1.2104e-05	1692
bin	1.21752e-05	1696
bin	1.22464e-05	1732
bin	1.23176e-05	1702
bin	1.23888e-05	1653
bin	1.246e-05	1697
bin	1.25312e-05	1644
bin	1.26024e-05	1620
bin	1.26736e-05	1622
bin	1.27448e-05	1641
bin	1.2816e-05	1588
bin	1.28872e-05	1563
bin	1.29584e-05	1600
bin	1.30296e-05	1497
bin	1.31008e-05	1413
bin	1.3172e-05	1435
bin	1.32432e-05	1491
bin	1.33144e-05	1561
bin	1.33856e-05	1522
bin	1.34568e-05	1525
bin	1.3528e-05	1465
bin	1.35992e-05	1452
bin	1.36704e-05	1404
bin	1.37416e-05	1404
bin	1.38128e-05	1468
bin	1.3884e-05	1450
bin	1.39552e-05	1401
bin	1.40264e-05	1426
bin	1.40976e-05	1461
bin	1.41688e-05	1460
bin	1.424e-05	1434
bin	1.43112e-05	1441
bin	1.43824e-05	1434
bin	1.44536e-05	1484
bin	1.45248e-05	1451
bin	1.4596e-05	1502
bin	1.46672e-05	1407
bin	1.47384e-05	1418
bin	1.48096e-05	1380
bin	1.48808e-05	1331
bin	1.4952e-05	1394
bin	1.50232e-05	1407
bin	1.50944e-05	1392
bin	1.51656e-05	1363
bin	1.52368e-05	1358
bin	1.5308e-05	1391
bin	1.53792e-05	1390
bin	1.54504e-05	1348
bin	1.55216e-05	1383
bin	1.55928e-05	1404
bin	1.5664e-05	1398
bin	1.57352e-05	1365
bin	1.58064e-05	1372
bin	1.58776e-05	1376
bin	1.59488e-05	1380
bin	1.602e-05	1317
bin	1.60912e-05	1256
bin	1.61624e-05	1271
bin	1.62336e-05	1309
bin	1.63048e-05	1328
bin	1.6376e-05	1243
bin	1.64472e-05	1242
bin	1.65184e-05	1238
bin	1.65896e-05	1259
bin	1.66608e-05	1239
bin	1.6732e-05	1268
bin	1.68032e-05	1208
bin	1.68744e-05	1145
bin	1.69456e-05	1159
bin	1.70168e-05	1137
bin	1.7088e-05	1171
bin	1.71592e-05	1226
bin	1.72304e-05	1215
bin	1.73016e-05	1239
bin	1.73728e-05	1239
bin	1.7444e-05	1220
bin	1.75152e-05	1201
bin	1.75864e-05	1161
bin	1.76576e-05	1167
bin	1.77288e-05	1130
bin	1.78e-05	1130
bin	1.78712e-05	1053
bin	1.79424e-05	1062
bin	1.80136e-05	1099
bin	1.80848e-05	1096
bin	1.8156e-05	1169
bin	1.82272e-05	1094
bin	1.82984e-05	1109
bin	1.83696e-05	1111
bin	1.84408e-05	1145
bin	1.8512e-05	1177
bin	1.85832e-05	1176
bin	1.86544e-05	1178
bin	1.87256e-05	1147
bin	1.87968e-05	1164
bin	1.8868e-05	1238
bin	1.89392e-05	1183
bin	1.90104e-05	1185
bin	1.90816e-05	1171
bin	1.91528e-05	1155
bin	1.9224e-05	1175
bin	1.92952e-05	1185
bin	1.93664e-05	1179
bin	1.94376e-05	1136
bin	1.95088e-05	1110
bin	1.958e-05	1085
bin	1.96512e-05	1051
bin	1.97224e-05	1090
bin	1.97936e-05	1058
bin	1.98648e-05	1052
bin	1.9936e-05	1045
bin	2.00072e-05	1044
bin	2.00784e-05	1053
bin	2.01496e-05	1086
bin	2.02208e-05	1048
bin	2.0292e-05	1057
bin	2.03632e-05	998
bin	2.04344e-05	1095
bin	2.05056e-05	1010
bin	2.05768e-05	1053
bin	2.0648e-05	1038
bin	2.07192e-05	985
bin	2.07904e-05	983
bin	2.08616e-05	1049
bin	2.09328e-05	1031
bin	2.1004e-05	1050
bin	2.10752e-05	1131
bin	2.11464e-05	1102
bin	2.12176e-05	1038
bin	2.12888e-05	1066
bin	2.136e-05	1081
bin	2.14312e-05	1087
bin	2.15024e-05	1026
bin	2.15736e-05	1071
bin	2.16448e-05	1089
bin	2.1716e-05	1007
bin	2.17872e-05	1087
bin	2.18584e-05	1070
bin	2.19296e-05	1007
bin	2.20008e-05	969
bin	2.2072e-05	931
bin	2.21432e-05	966
bin	2.22144e-05	895
bin	2.22856e-05	931
bin	2.23568e-05	920
bin	2.2428e-05	1002
bin	2.24992e-05	904
bin	2.25704e-05	954
bin	2.26416e-05	947
bin	2.27128e-05	980
bin	2.2784e-05	925
bin	2.28552e-05	943
bin	2.29264e-05	962
bin	2.29976e-05	924
bin	2.30688e-05	977
bin	2.314e-05	978
bin	2.32112e-05	917
bin	2.32824e-05	960
bin	2.33536e-05	895
bin	2.34248e-05	962
bin	2.3496e-05	925
bin	2.35672e-05	982
bin	2.36384e-05	954
bin	2.37096e-05	956
bin	2.37808e-05	966
bin	2.3852e-05	981
bin	2.39232e-05	911
bin	2.39944e-05	964
bin	2.40656e-05	961
bin	2.41368e-05	930
bin	2.4208e-05	964
bin	2.42792e-05	938
bin	2.43504e-05	1012
bin	2.44216e-05	971
bin	2.44928e-05	971
bin	2.4564e-05	959
bin	2.46352e-05	978
bin	2.47064e-05	952
bin	2.47776e-05	893
bin	2.48488e-05	923
bin	2.492e-05	964
bin	2.49912e-05	1008
bin	2.50624e-05	962
bin	2.51336e-05	1020
bin	2.52048e-05	992
bin	2.5276e-05	1033
bin	2.53472e-05	1020
bin	2.54184e-05	1003
bin	2.54896e-05	953
bin	2.55608e-05	975
bin	2.5632e-05	977
bin	2.57032e-05	1036
bin	2.57744e-05	992
bin	2.58456e-05	1014
bin	2.59168e-05	994
bin	2.5988e-05	1027
bin	2.60592e-05	1005
bin	2.61304e-05	926
bin	2.62016e-05	916
bin	2.62728e-05	988
bin	2.6344e-05	931
bin	2.64152e-05	934
bin	2.64864e-05	986
bin	2.65576e-05	955
bin	2.66288e-05	946
bin	2.67e-05	908
bin	2.67712e-05	896
bin	2.68424e-05	863
bin	2.69136e-05	916
bin	2.69848e-05	888
bin	2.7056e-05	910
bin	2.71272e-05	960
bin	2.71984e-05	946
bin	2.72696e-05	982
bin	2.73408e-05	946
bin	2.7412e-05	875
bin	2.74832e-05	953
bin	2.75544e-05	942
bin	2.76256e-05	937
bin	2.76968e-05	913
bin	2.7768e-05	886
bin	2.78392e-05	936
bin	2.79104e-05	908
bin	2.79816e-05	886
bin	2.80528e-05	922
bin	2.8124e-05	905
bin	2.81952e-05	891
bin	2.82664e-05	925
bin	2.83376e-05	849
bin	2.84088e-05	869
bin	2.848e-05	872
bin	2.85512e-05	845
bin	2.86224e-05	819
bin	2.86936e-05	831
bin	2.87648e-05	818
bin	2.8836e-05	887
bin	2.89072e-05	841
bin	2.89784e-05	882
bin	2.90496e-05	836
bin	2.91208e-05	859
bin	2.9192e-05	868
bin	2.92632e-05	853
bin	2.93344e-05	822
bin	2.94056e-05	803
bin	2.94768e-05	843
bin	2.9548e-05	789
bin	2.96192e-05	860
bin	2.96904e-05	800
bin	2.97616e-05	782
bin	2.98328e-05	817
bin	2.9904e-05	785
bin	2.99752e-05	798
bin	3.00464e-05	761
bin	3.01176e-05	777
bin	3.01888e-05	731
bin	3.026e-05	797
bin	3.03312e-05	759
bin	3.04024e-05	827
bin	3.04736e-05	895
bin	3.05448e-05	837
bin	3.0616e-05	920
bin	3.06872e-05	918
bin	3.07584e-05	939
bin	3.08296e-05	937
bin	3.09008e-05	921
bin	3.0972e-05	924
bin	3.10432e-05	935
bin	3.11144e-05	908
bin	3.11856e-05	868
bin	3.12568e-05	851
bin	3.1328e-05	838
bin	3.13992e-05	880
bin	3.14704e-05	865
bin	3.15416e-05	821
bin	3.16128e-05	858
bin	3.1684e-05	849
bin	3.17552e-05	880
bin	3.18264e-05	896
bin	3.18976e-05	838
bin	3.19688e-05	779
bin	3.204e-05	814
bin	3.21112e-05	763
bin	3.21824e-05	822
bin	3.22536e-05	804
bin	3.23248e-05	848
bin	3.2396e-05	858
bin	3.24672e-05	818
bin	3.25384e-05	839
bin	3.26096e-05	853
bin	3.26808e-05	843
bin	3.2752e-05	837
bin	3.28232e-05	832
bin	3.28944e-05	865
bin	3.29656e-05	806
bin	3.30368e-05	802
bin	3.3108e-05	740
bin	3.31792e-05	766
bin	3.32504e-05	800
bin	3.33216e-05	796
bin	3.33928e-05	843
bin	3.3464e-05	830
bin	3.35352e-05	817
bin	3.36064e-05	783
bin	3.36776e-05	803
bin	3.37488e-05	806
bin	3.382e-05	829
bin	3.38912e-05	806
bin	3.39624e-05	832
bin	3.40336e-05	837
bin	3.41048e-05	853
bin	3.4176e-05	820
bin	3.42472e-05	850
bin	3.43184e-05	889
bin	3.43896e-05	856
bin	3.44608e-05	846
bin	3.4532e-05	823
bin	3.46032e-05	877
bin	3.46744e-05	863
bin	3.47456e-05	955
bin	3.48168e-05	855
bin	3.4888e-05	852
bin	3.49592e-05	863
bin	3.50304e-05	813
bin	3.51016e-05	863
bin	3.51728e-05	785
bin	3.5244e-05	805
bin	3.53152e-05	834
bin	3.53864e-05	816
bin	3.54576e-05	805
bin	3.55288e-05	807
bin	3.56e-05	4559560
statistic Torus3d_bub.timer 	"Life Times"
field count 6291456
field mean 0.0015643994931764
field stddev 0.0011791923548017
field sum 9842.3505777415
field sqrsum 24.145602519668
field min 1.64e-07
field max 0.004377312666617
bin	-INF	0
bin	0	6208
bin	8.544e-07	8192
bin	1.7088e-06	8767
bin	2.5632e-06	9302
bin	3.4176e-06	10277
bin	4.272e-06	11268
bin	5.1264e-06	12471
bin	5.9808e-06	13742
bin	6.8352e-06	15078
bin	7.6896e-06	16545
bin	8.544e-06	17824
bin	9.3984e-06	19331
bin	1.02528e-05	14743
bin	1.11072e-05	13647
bin	1.19616e-05	14687
bin	1.2816e-05	15975
bin	1.36704e-05	16612
bin	1.45248e-05	17666
bin	1.53792e-05	18526
bin	1.62336e-05	19152
bin	1.7088e-05	19757
bin	1.79424e-05	20350
bin	1.87968e-05	21110
bin	1.96512e-05	21715
bin	2.05056e-05	22585
bin	2.136e-05	23020
bin	2.22144e-05	23880
bin	2.30688e-05	24683
bin	2.39232e-05	25737
bin	2.47776e-05	26515
bin	2.5632e-05	27525
bin	2.64864e-05	28306
bin	2.73408e-05	28852
bin	2.81952e-05	29561
bin	2.90496e-05	29570
bin	2.9904e-05	29522
bin	3.07584e-05	29467
bin	3.16128e-05	28804
bin	3.24672e-05	27315
bin	3.33216e-05	25646
bin	3.4176e-05	23985
bin	3.50304e-05	22683
bin	3.58848e-05	21217
bin	3.67392e-05	19713
bin	3.75936e-05	18124
bin	3.8448e-05	16323
bin	3.93024e-05	15150
bin	4.01568e-05	13594
bin	4.10112e-05	12381
bin	4.18656e-05	11233
bin	4.272e-05	10419
bin	4.35744e-05	9563
bin	4.44288e-05	8851
bin	4.52832e-05	8350
bin	4.61376e-05	7818
bin	4.6992e-05	7469
bin	4.78464e-05	7049
bin	4.87008e-05	6828
bin	4.95552e-05	6751
bin	5.04096e-05	6426
bin	5.1264e-05	6337
bin	5.21184e-05	6211
bin	5.29728e-05	6148
bin	5.38272e-05	5936
bin	5.46816e-05	5782
bin	5.5536e-05	5908
bin	5.63904e-05	5786
bin	5.72448e-05	5779
bin	5.80992e-05	5624
bin	5.89536e-05	5536
bin	5.9808e-05	5527
bin	6.06624e-05	5795
bin	6.15168e-05	5852
bin	6.23712e-05	5854
bin	6.32256e-05	5655
bin	6.408e-05	5714
bin	6.49344e-05	5415
bin	6.57888e-05	5289
bin	6.66432e-05	5208
bin	6.74976e-05	4848
bin	6.8352e-05	4650
bin	6.92064e-05	4514
bin	7.00608e-05	4309
bin	7.09152e-05	4150
bin	7.17696e-05	3977
bin	7.2624e-05	3741
bin	7.34784e-05	3541
bin	7.43328e-05	3307
bin	7.51872e-05	3253
bin	7.60416e-05	3190
bin	7.6896e-05	3156
bin	7.77504e-05	3043
bin	7.86048e-05	3014
bin	7.94592e-05	2864
bin	8.03136e-05	2846
bin	8.1168e-05	2890
bin	8.20224e-05	2860
bin	8.28768e-05	2828
bin	8.37312e-05	2849
bin	8.45856e-05	2863
bin	8.544e-05	2785
bin	8.62944e-05	2793
bin	8.71488e-05	2868
bin	8.80032e-05	2792
bin	8.88576e-05	2858
bin	8.9712e-05	2843
bin	9.05664e-05	3034
bin	9.14208e-05	2895
bin	9.22752e-05	3007
bin	9.31296e-05	3042
bin	9.3984e-05	3013
bin	9.48384e-05	2982
bin	9.56928e-05	3025
bin	9.65472e-05	2979
bin	9.74016e-05	2849
bin	9.8256e-05	2799
bin	9.91104e-05	2692
bin	9.99648e-05	2757
bin	0.0001008192	2576
bin	0.0001016736	2543
bin	0.000102528	2486
bin	0.0001033824	2346
bin	0.0001042368	2235
bin	0.0001050912	2082
bin	0.0001059456	2108
bin	0.0001068	2082
bin	0.0001076544	2019
bin	0.0001085088	1940
bin	0.0001093632	1896
bin	0.0001102176	1945
bin	0.000111072	1851
bin	0.0001119264	1888
bin	0.0001127808	1877
bin	0.0001136352	1819
bin	0.0001144896	1837
bin	0.000115344	1895
bin	0.0001161984	1927
bin	0.0001170528	1992
bin	0.0001179072	1950
bin	0.0001187616	1914
bin	0.000119616	2034
bin	0.0001204704	1969
bin	0.0001213248	1968
bin	0.0001221792	2048
bin	0.0001230336	2086
bin	0.000123888	2096
bin	0.0001247424	2146
bin	0.0001255968	2040
bin	0.0001264512	2125
bin	0.0001273056	2027
bin	0.00012816	2025
bin	0.0001290144	1952
bin	0.0001298688	1984
bin	0.0001307232	1847
bin	0.0001315776	1854
bin	0.000132432	1792
bin	0.0001332864	1721
bin	0.0001341408	1730
bin	0.0001349952	1631
bin	0.0001358496	1625
bin	0.000136704	1493
bin	0.0001375584	1549
bin	0.0001384128	1482
bin	0.0001392672	1495
bin	0.0001401216	1534
bin	0.000140976	1551
bin	0.0001418304	1536
bin	0.0001426848	1493
bin	0.0001435392	1517
bin	0.0001443936	1535
bin	0.000145248	1511
bin	0.0001461024	1584
bin	0.0001469568	1572
bin	0.0001478112	1560
bin	0.0001486656	1620
bin	0.00014952	1589
bin	0.0001503744	1593
bin	0.0001512288	1599
bin	0.0001520832	1643
bin	0.0001529376	1584
bin	0.000153792	1624
bin	0.0001546464	1567
bin	0.0001555008	1652
bin	0.0001563552	1670
bin	0.0001572096	1697
bin	0.000158064	1720
bin	0.0001589184	1758
bin	0.0001597728	1629
bin	0.0001606272	1631
bin	0.0001614816	1539
bin	0.000162336	1499
bin	0.0001631904	1454
bin	0.0001640448	1374
bin	0.0001648992	1361
bin	0.0001657536	1316
bin	0.000166608	1207
bin	0.0001674624	1242
bin	0.0001683168	1239
bin	0.0001691712	1168
bin	0.0001700256	1164
bin	0.00017088	1167
bin	0.0001717344	1170
bin	0.0001725888	1195
bin	0.0001734432	1174
bin	0.0001742976	1190
bin	0.000175152	1195
bin	0.0001760064	1146
bin	0.0001768608	1121
bin	0.0001777152	1139
bin	0.0001785696	1197
bin	0.000179424	1167
bin	0.0001802784	1217
bin	0.0001811328	1212
bin	0.0001819872	1230
bin	0.0001828416	1262
bin	0.000183696	1235
bin	0.0001845504	1222
bin	0.0001854048	1258
bin	0.0001862592	1207
bin	0.0001871136	1227
bin	0.000187968	1206
bin	0.0001888224	1195
bin	0.0001896768	1213
bin	0.0001905312	1164
bin	0.0001913856	1154
bin	0.00019224	1236
bin	0.0001930944	1228
bin	0.0001939488	1128
bin	0.0001948032	1150
bin	0.0001956576	1156
bin	0.000196512	1102
bin	0.0001973664	1044
bin	0.0001982208	1057
bin	0.0001990752	1104
bin	0.0001999296	1074
bin	0.000200784	1085
bin	0.0002016384	1093
bin	0.0002024928	1077
bin	0.0002033472	1029
bin	0.0002042016	1030
bin	0.000205056	1043
bin	0.0002059104	1011
bin	0.0002067648	1057
bin	0.0002076192	1014
bin	0.0002084736	1056
bin	0.000209328	1024
bin	0.0002101824	1066
bin	0.0002110368	1042
bin	0.0002118912	1049
bin	0.0002127456	1110
bin	0.0002136	1128
bin	0.0002144544	1079
bin	0.0002153088	1122
bin	0.0002161632	1119
bin	0.0002170176	1161
bin	0.000217872	1235
bin	0.0002187264	1197
bin	0.0002195808	1121
bin	0.0002204352	1201
bin	0.0002212896	1161
bin	0.000222144	1166
bin	0.0002229984	1168
bin	0.0002238528	1122
bin	0.0002247072	1122
bin	0.0002255616	1175
bin	0.000226416	1104
bin	0.0002272704	1069
bin	0.0002281248	1102
bin	0.0002289792	1011
bin	0.0002298336	1020
bin	0.000230688	931
bin	0.0002315424	993
bin	0.0002323968	913
bin	0.0002332512	927
bin	0.0002341056	918
bin	0.00023496	929
bin	0.0002358144	921
bin	0.0002366688	958
bin	0.0002375232	1012
bin	0.0002383776	985
bin	0.000239232	934
bin	0.0002400864	987
bin	0.0002409408	975
bin	0.0002417952	1024
bin	0.0002426496	981
bin	0.000243504	998
bin	0.0002443584	984
bin	0.0002452128	1003
bin	0.0002460672	965
bin	0.0002469216	954
bin	0.000247776	982
bin	0.0002486304	969
bin	0.0002494848	966
bin	0.0002503392	986
bin	0.0002511936	1017
bin	0.000252048	1017
bin	0.0002529024	1036
bin	0.0002537568	1033
bin	0.0002546112	946
bin	0.0002554656	989
bin	0.00025632	975
bin	0.0002571744	887
bin	0.0002580288	894
bin	0.0002588832	851
bin	0.0002597376	846
bin	0.000260592	868
bin	0.0002614464	850
bin	0.0002623008	857
bin	0.0002631552	831
bin	0.0002640096	879
bin	0.000264864	853
bin	0.0002657184	826
bin	0.0002665728	819
bin	0.0002674272	792
bin	0.0002682816	825
bin	0.000269136	852
bin	0.0002699904	855
bin	0.0002708448	899
bin	0.0002716992	918
bin	0.0002725536	910
bin	0.000273408	884
bin	0.0002742624	957
bin	0.0002751168	961
bin	0.0002759712	988
bin	0.0002768256	999
bin	0.00027768	1020
bin	0.0002785344	960
bin	0.0002793888	966
bin	0.0002802432	1016
bin	0.0002810976	916
bin	0.000281952	971
bin	0.0002828064	996
bin	0.0002836608	974
bin	0.0002845152	931
bin	0.0002853696	977
bin	0.000286224	910
bin	0.0002870784	845
bin	0.0002879328	934
bin	0.0002887872	883
bin	0.0002896416	892
bin	0.000290496	911
bin	0.0002913504	887
bin	0.0002922048	890
bin	0.0002930592	883
bin	0.0002939136	858
bin	0.000294768	841
bin	0.0002956224	836
bin	0.0002964768	838
bin	0.0002973312	800
bin	0.0002981856	809
bin	0.00029904	875
bin	0.0002998944	853
bin	0.0003007488	874
bin	0.0003016032	895
bin	0.0003024576	912
bin	0.000303312	938
bin	0.0003041664	934
bin	0.0003050208	905
bin	0.0003058752	901
bin	0.0003067296	879
bin	0.000307584	844
bin	0.0003084384	899
bin	0.0003092928	932
bin	0.0003101472	953
bin	0.0003110016	931
bin	0.000311856	937
bin	0.0003127104	974
bin	0.0003135648	912
bin	0.0003144192	871
bin	0.0003152736	852
bin	0.000316128	800
bin	0.0003169824	810
bin	0.0003178368	823
bin	0.0003186912	767
bin	0.0003195456	776
bin	0.0003204	685
bin	0.0003212544	779
bin	0.0003221088	740
bin	0.0003229632	702
bin	0.0003238176	709
bin	0.000324672	708
bin	0.0003255264	738
bin	0.0003263808	725
bin	0.0003272352	783
bin	0.0003280896	785
bin	0.000328944	804
bin	0.0003297984	786
bin	0.0003306528	771
bin	0.0003315072	801
bin	0.0003323616	800
bin	0.000333216	806
bin	0.0003340704	842
bin	0.0003349248	830
bin	0.0003357792	807
bin	0.0003366336	827
bin	0.000337488	838
bin	0.0003383424	909
bin	0.0003391968	854
bin	0.0003400512	855
bin	0.0003409056	802
bin	0.00034176	832
bin	0.0003426144	806
bin	0.0003434688	826
bin	0.0003443232	819
bin	0.0003451776	795
bin	0.000346032	821
bin	0.0003468864	797
bin	0.0003477408	773
bin	0.0003485952	774
bin	0.0003494496	795
bin	0.000350304	742
bin	0.0003511584	683
bin	0.0003520128	698
bin	0.0003528672	699
bin	0.0003537216	702
bin	0.000354576	664
bin	0.0003554304	715
bin	0.0003562848	712
bin	0.0003571392	713
bin	0.0003579936	751
bin	0.000358848	752
bin	0.0003597024	746
bin	0.0003605568	724
bin	0.0003614112	717
bin	0.0003622656	742
bin	0.00036312	742
bin	0.0003639744	715
bin	0.0003648288	752
bin	0.0003656832	758
bin	0.0003665376	810
bin	0.000367392	790
bin	0.0003682464	756
bin	0.0003691008	765
bin	0.0003699552	816
bin	0.0003708096	818
bin	0.000371664	825
bin	0.0003725184	784
bin	0.0003733728	772
bin	0.0003742272	781
bin	0.0003750816	774
bin	0.000375936	778
bin	0.0003767904	732
bin	0.0003776448	766
bin	0.0003784992	714
bin	0.0003793536	695
bin	0.000380208	719
bin	0.0003810624	688
bin	0.0003819168	672
bin	0.0003827712	668
bin	0.0003836256	683
bin	0.00038448	660
bin	0.0003853344	688
bin	0.0003861888	683
bin	0.0003870432	688
bin	0.0003878976	713
bin	0.000388752	765
bin	0.0003896064	692
bin	0.0003904608	684
bin	0.0003913152	732
bin	0.0003921696	732
bin	0.000393024	666
bin	0.0003938784	690
bin	0.0003947328	680
bin	0.0003955872	653
bin	0.0003964416	698
bin	0.000397296	695
bin	0.0003981504	679
bin	0.0003990048	672
bin	0.0003998592	737
bin	0.0004007136	746
bin	0.000401568	751
bin	0.0004024224	766
bin	0.0004032768	707
bin	0.0004041312	741
bin	0.0004049856	752
bin	0.00040584	726
bin	0.0004066944	700
bin	0.0004075488	691
bin	0.0004084032	669
bin	0.0004092576	646
bin	0.000410112	683
bin	0.0004109664	614
bin	0.0004118208	622
bin	0.0004126752	635
bin	0.0004135296	647
bin	0.000414384	594
bin	0.0004152384	609
bin	0.0004160928	643
bin	0.0004169472	608
bin	0.0004178016	587
bin	0.000418656	638
bin	0.0004195104	614
bin	0.0004203648	597
bin	0.0004212192	612
bin	0.0004220736	613
bin	0.000422928	598
bin	0.0004237824	614
bin	0.0004246368	624
bin	0.0004254912	616
bin	0.0004263456	623
bin	0.0004272	4598714
