version 2
run Transposition-35-20120710-10:53:15-25387
attr alg 3
attr buf 8
attr configname Transposition
attr datetime 20120710-10:53:15
attr delta 0.8
attr experiment Transposition
attr ext true
attr inifile altro.ini
attr iterationvars "$buf=8, $ext=true, $ofedge=2, $delta=0.8, $alg=3"
attr iterationvars2 "$buf=8, $ext=true, $ofedge=2, $delta=0.8, $alg=3, $repetition=0"
attr measurement "$buf=8, $ext=true, $ofedge=2, $delta=0.8, $alg=3"
attr network Torus3d_bub
attr ofedge 2
attr processid 25387
attr repetition 0
attr replication #0
attr resultdir altro-results
attr runnumber 35
attr seedset 35

scalar . 	alg 	3
scalar . 	buf 	8
scalar . 	delta 	0.8
scalar . 	ofedge 	2
scalar Torus3d_bub.timer 	#endTime 	0.003976456327577
scalar Torus3d_bub.timer 	#totalHops 	85971634
scalar Torus3d_bub.timer 	#totalPacks 	6291456
scalar Torus3d_bub.timer 	#totalDerouted 	1905372
scalar Torus3d_bub.timer 	#totalOutFlanked 	1160251
scalar Torus3d_bub.timer 	#totalCQRed 	745121
scalar Torus3d_bub.timer 	#LB 	0.000786432
scalar Torus3d_bub.timer 	#ratio 	0.19777207020885
statistic Torus3d_bub.timer 	"Hop Times"
field count 6193152
field mean 8.6635665671588e-05
field stddev 6.4388966423679e-05
field sum 536.54784612533
field sqrsum 0.072160606059613
field min 4.01999999e-07
field max 0.000646333999999
bin	-INF	0
bin	0	0
bin	7.12e-08	0
bin	1.424e-07	0
bin	2.136e-07	0
bin	2.848e-07	0
bin	3.56e-07	22
bin	4.272e-07	749
bin	4.984e-07	1702
bin	5.696e-07	2954
bin	6.408e-07	4404
bin	7.12e-07	6067
bin	7.832e-07	7614
bin	8.544e-07	9191
bin	9.256e-07	10336
bin	9.968e-07	11655
bin	1.068e-06	12816
bin	1.1392e-06	13913
bin	1.2104e-06	15404
bin	1.2816e-06	16892
bin	1.3528e-06	18886
bin	1.424e-06	21053
bin	1.4952e-06	23682
bin	1.5664e-06	25529
bin	1.6376e-06	27524
bin	1.7088e-06	29038
bin	1.78e-06	29915
bin	1.8512e-06	30458
bin	1.9224e-06	31200
bin	1.9936e-06	30892
bin	2.0648e-06	30823
bin	2.136e-06	30196
bin	2.2072e-06	29639
bin	2.2784e-06	29238
bin	2.3496e-06	28041
bin	2.4208e-06	27412
bin	2.492e-06	26334
bin	2.5632e-06	25684
bin	2.6344e-06	24113
bin	2.7056e-06	23153
bin	2.7768e-06	22580
bin	2.848e-06	21317
bin	2.9192e-06	20567
bin	2.9904e-06	19499
bin	3.0616e-06	18653
bin	3.1328e-06	17940
bin	3.204e-06	17056
bin	3.2752e-06	16384
bin	3.3464e-06	15880
bin	3.4176e-06	15037
bin	3.4888e-06	14267
bin	3.56e-06	13811
bin	3.6312e-06	12979
bin	3.7024e-06	12427
bin	3.7736e-06	11824
bin	3.8448e-06	11349
bin	3.916e-06	11047
bin	3.9872e-06	10358
bin	4.0584e-06	9946
bin	4.1296e-06	9580
bin	4.2008e-06	9112
bin	4.272e-06	8880
bin	4.3432e-06	8578
bin	4.4144e-06	8304
bin	4.4856e-06	7904
bin	4.5568e-06	7803
bin	4.628e-06	7603
bin	4.6992e-06	7325
bin	4.7704e-06	7234
bin	4.8416e-06	6866
bin	4.9128e-06	6674
bin	4.984e-06	6768
bin	5.0552e-06	6426
bin	5.1264e-06	6437
bin	5.1976e-06	6343
bin	5.2688e-06	6047
bin	5.34e-06	5993
bin	5.4112e-06	5914
bin	5.4824e-06	5748
bin	5.5536e-06	5699
bin	5.6248e-06	5584
bin	5.696e-06	5524
bin	5.7672e-06	5343
bin	5.8384e-06	5223
bin	5.9096e-06	5194
bin	5.9808e-06	4976
bin	6.052e-06	5009
bin	6.1232e-06	4910
bin	6.1944e-06	4901
bin	6.2656e-06	4866
bin	6.3368e-06	4764
bin	6.408e-06	4562
bin	6.4792e-06	4494
bin	6.5504e-06	4369
bin	6.6216e-06	4297
bin	6.6928e-06	4227
bin	6.764e-06	4183
bin	6.8352e-06	4102
bin	6.9064e-06	4043
bin	6.9776e-06	3883
bin	7.0488e-06	3855
bin	7.12e-06	3731
bin	7.1912e-06	3757
bin	7.2624e-06	3618
bin	7.3336e-06	3612
bin	7.4048e-06	3553
bin	7.476e-06	3339
bin	7.5472e-06	3301
bin	7.6184e-06	3256
bin	7.6896e-06	3152
bin	7.7608e-06	3117
bin	7.832e-06	3158
bin	7.9032e-06	3111
bin	7.9744e-06	2995
bin	8.0456e-06	2940
bin	8.1168e-06	2938
bin	8.188e-06	3032
bin	8.2592e-06	2878
bin	8.3304e-06	2925
bin	8.4016e-06	2899
bin	8.4728e-06	2845
bin	8.544e-06	2922
bin	8.6152e-06	2874
bin	8.6864e-06	2827
bin	8.7576e-06	2766
bin	8.8288e-06	2755
bin	8.9e-06	2777
bin	8.9712e-06	2713
bin	9.0424e-06	2623
bin	9.1136e-06	2698
bin	9.1848e-06	2693
bin	9.256e-06	2629
bin	9.3272e-06	2639
bin	9.3984e-06	2620
bin	9.4696e-06	2582
bin	9.5408e-06	2645
bin	9.612e-06	2544
bin	9.6832e-06	2599
bin	9.7544e-06	2544
bin	9.8256e-06	2530
bin	9.8968e-06	2438
bin	9.968e-06	2358
bin	1.00392e-05	2287
bin	1.01104e-05	2239
bin	1.01816e-05	2277
bin	1.02528e-05	2244
bin	1.0324e-05	2257
bin	1.03952e-05	2180
bin	1.04664e-05	2299
bin	1.05376e-05	2303
bin	1.06088e-05	2210
bin	1.068e-05	2153
bin	1.07512e-05	2236
bin	1.08224e-05	2232
bin	1.08936e-05	2184
bin	1.09648e-05	2248
bin	1.1036e-05	2203
bin	1.11072e-05	2206
bin	1.11784e-05	2221
bin	1.12496e-05	2211
bin	1.13208e-05	2259
bin	1.1392e-05	2230
bin	1.14632e-05	2243
bin	1.15344e-05	2158
bin	1.16056e-05	2132
bin	1.16768e-05	2249
bin	1.1748e-05	2211
bin	1.18192e-05	2173
bin	1.18904e-05	2224
bin	1.19616e-05	2158
bin	1.20328e-05	2223
bin	1.2104e-05	2064
bin	1.21752e-05	2040
bin	1.22464e-05	2188
bin	1.23176e-05	2147
bin	1.23888e-05	2088
bin	1.246e-05	2143
bin	1.25312e-05	2114
bin	1.26024e-05	2100
bin	1.26736e-05	2056
bin	1.27448e-05	2058
bin	1.2816e-05	2091
bin	1.28872e-05	2014
bin	1.29584e-05	2017
bin	1.30296e-05	1990
bin	1.31008e-05	2032
bin	1.3172e-05	1901
bin	1.32432e-05	1912
bin	1.33144e-05	1922
bin	1.33856e-05	1890
bin	1.34568e-05	1901
bin	1.3528e-05	1865
bin	1.35992e-05	1884
bin	1.36704e-05	1783
bin	1.37416e-05	1789
bin	1.38128e-05	1849
bin	1.3884e-05	1812
bin	1.39552e-05	1825
bin	1.40264e-05	1801
bin	1.40976e-05	1808
bin	1.41688e-05	1802
bin	1.424e-05	1755
bin	1.43112e-05	1830
bin	1.43824e-05	1733
bin	1.44536e-05	1796
bin	1.45248e-05	1696
bin	1.4596e-05	1719
bin	1.46672e-05	1744
bin	1.47384e-05	1718
bin	1.48096e-05	1831
bin	1.48808e-05	1794
bin	1.4952e-05	1786
bin	1.50232e-05	1751
bin	1.50944e-05	1747
bin	1.51656e-05	1757
bin	1.52368e-05	1821
bin	1.5308e-05	1800
bin	1.53792e-05	1736
bin	1.54504e-05	1723
bin	1.55216e-05	1738
bin	1.55928e-05	1644
bin	1.5664e-05	1756
bin	1.57352e-05	1726
bin	1.58064e-05	1680
bin	1.58776e-05	1742
bin	1.59488e-05	1706
bin	1.602e-05	1650
bin	1.60912e-05	1673
bin	1.61624e-05	1685
bin	1.62336e-05	1598
bin	1.63048e-05	1642
bin	1.6376e-05	1590
bin	1.64472e-05	1532
bin	1.65184e-05	1595
bin	1.65896e-05	1578
bin	1.66608e-05	1597
bin	1.6732e-05	1638
bin	1.68032e-05	1628
bin	1.68744e-05	1590
bin	1.69456e-05	1601
bin	1.70168e-05	1577
bin	1.7088e-05	1546
bin	1.71592e-05	1538
bin	1.72304e-05	1518
bin	1.73016e-05	1485
bin	1.73728e-05	1466
bin	1.7444e-05	1507
bin	1.75152e-05	1519
bin	1.75864e-05	1490
bin	1.76576e-05	1567
bin	1.77288e-05	1493
bin	1.78e-05	1473
bin	1.78712e-05	1502
bin	1.79424e-05	1529
bin	1.80136e-05	1476
bin	1.80848e-05	1466
bin	1.8156e-05	1444
bin	1.82272e-05	1444
bin	1.82984e-05	1482
bin	1.83696e-05	1524
bin	1.84408e-05	1558
bin	1.8512e-05	1576
bin	1.85832e-05	1556
bin	1.86544e-05	1533
bin	1.87256e-05	1494
bin	1.87968e-05	1541
bin	1.8868e-05	1558
bin	1.89392e-05	1530
bin	1.90104e-05	1460
bin	1.90816e-05	1472
bin	1.91528e-05	1545
bin	1.9224e-05	1481
bin	1.92952e-05	1465
bin	1.93664e-05	1437
bin	1.94376e-05	1452
bin	1.95088e-05	1424
bin	1.958e-05	1413
bin	1.96512e-05	1359
bin	1.97224e-05	1453
bin	1.97936e-05	1370
bin	1.98648e-05	1454
bin	1.9936e-05	1399
bin	2.00072e-05	1335
bin	2.00784e-05	1371
bin	2.01496e-05	1404
bin	2.02208e-05	1382
bin	2.0292e-05	1380
bin	2.03632e-05	1434
bin	2.04344e-05	1431
bin	2.05056e-05	1414
bin	2.05768e-05	1500
bin	2.0648e-05	1424
bin	2.07192e-05	1428
bin	2.07904e-05	1447
bin	2.08616e-05	1460
bin	2.09328e-05	1390
bin	2.1004e-05	1429
bin	2.10752e-05	1374
bin	2.11464e-05	1339
bin	2.12176e-05	1286
bin	2.12888e-05	1368
bin	2.136e-05	1416
bin	2.14312e-05	1380
bin	2.15024e-05	1356
bin	2.15736e-05	1356
bin	2.16448e-05	1361
bin	2.1716e-05	1429
bin	2.17872e-05	1387
bin	2.18584e-05	1408
bin	2.19296e-05	1365
bin	2.20008e-05	1383
bin	2.2072e-05	1435
bin	2.21432e-05	1406
bin	2.22144e-05	1381
bin	2.22856e-05	1290
bin	2.23568e-05	1326
bin	2.2428e-05	1284
bin	2.24992e-05	1307
bin	2.25704e-05	1305
bin	2.26416e-05	1241
bin	2.27128e-05	1295
bin	2.2784e-05	1282
bin	2.28552e-05	1266
bin	2.29264e-05	1243
bin	2.29976e-05	1308
bin	2.30688e-05	1297
bin	2.314e-05	1371
bin	2.32112e-05	1339
bin	2.32824e-05	1335
bin	2.33536e-05	1346
bin	2.34248e-05	1238
bin	2.3496e-05	1236
bin	2.35672e-05	1304
bin	2.36384e-05	1290
bin	2.37096e-05	1288
bin	2.37808e-05	1249
bin	2.3852e-05	1324
bin	2.39232e-05	1285
bin	2.39944e-05	1361
bin	2.40656e-05	1209
bin	2.41368e-05	1347
bin	2.4208e-05	1357
bin	2.42792e-05	1328
bin	2.43504e-05	1310
bin	2.44216e-05	1307
bin	2.44928e-05	1282
bin	2.4564e-05	1317
bin	2.46352e-05	1327
bin	2.47064e-05	1243
bin	2.47776e-05	1305
bin	2.48488e-05	1321
bin	2.492e-05	1345
bin	2.49912e-05	1326
bin	2.50624e-05	1345
bin	2.51336e-05	1301
bin	2.52048e-05	1248
bin	2.5276e-05	1255
bin	2.53472e-05	1294
bin	2.54184e-05	1195
bin	2.54896e-05	1247
bin	2.55608e-05	1218
bin	2.5632e-05	1214
bin	2.57032e-05	1203
bin	2.57744e-05	1198
bin	2.58456e-05	1225
bin	2.59168e-05	1174
bin	2.5988e-05	1193
bin	2.60592e-05	1193
bin	2.61304e-05	1184
bin	2.62016e-05	1226
bin	2.62728e-05	1233
bin	2.6344e-05	1198
bin	2.64152e-05	1125
bin	2.64864e-05	1161
bin	2.65576e-05	1230
bin	2.66288e-05	1260
bin	2.67e-05	1219
bin	2.67712e-05	1125
bin	2.68424e-05	1146
bin	2.69136e-05	1150
bin	2.69848e-05	1131
bin	2.7056e-05	1277
bin	2.71272e-05	1247
bin	2.71984e-05	1190
bin	2.72696e-05	1157
bin	2.73408e-05	1171
bin	2.7412e-05	1184
bin	2.74832e-05	1144
bin	2.75544e-05	1203
bin	2.76256e-05	1190
bin	2.76968e-05	1181
bin	2.7768e-05	1126
bin	2.78392e-05	1175
bin	2.79104e-05	1160
bin	2.79816e-05	1114
bin	2.80528e-05	1146
bin	2.8124e-05	1154
bin	2.81952e-05	1125
bin	2.82664e-05	1179
bin	2.83376e-05	1096
bin	2.84088e-05	1136
bin	2.848e-05	1116
bin	2.85512e-05	1150
bin	2.86224e-05	1116
bin	2.86936e-05	1156
bin	2.87648e-05	1130
bin	2.8836e-05	1149
bin	2.89072e-05	1153
bin	2.89784e-05	1182
bin	2.90496e-05	1158
bin	2.91208e-05	1182
bin	2.9192e-05	1201
bin	2.92632e-05	1166
bin	2.93344e-05	1148
bin	2.94056e-05	1217
bin	2.94768e-05	1178
bin	2.9548e-05	1111
bin	2.96192e-05	1120
bin	2.96904e-05	1150
bin	2.97616e-05	1183
bin	2.98328e-05	1067
bin	2.9904e-05	1096
bin	2.99752e-05	1157
bin	3.00464e-05	1128
bin	3.01176e-05	1123
bin	3.01888e-05	1143
bin	3.026e-05	1183
bin	3.03312e-05	1204
bin	3.04024e-05	1236
bin	3.04736e-05	1276
bin	3.05448e-05	1221
bin	3.0616e-05	1174
bin	3.06872e-05	1204
bin	3.07584e-05	1170
bin	3.08296e-05	1206
bin	3.09008e-05	1229
bin	3.0972e-05	1222
bin	3.10432e-05	1202
bin	3.11144e-05	1247
bin	3.11856e-05	1184
bin	3.12568e-05	1098
bin	3.1328e-05	1138
bin	3.13992e-05	1135
bin	3.14704e-05	1122
bin	3.15416e-05	1105
bin	3.16128e-05	1097
bin	3.1684e-05	1114
bin	3.17552e-05	1104
bin	3.18264e-05	1087
bin	3.18976e-05	1080
bin	3.19688e-05	1097
bin	3.204e-05	1163
bin	3.21112e-05	1113
bin	3.21824e-05	1152
bin	3.22536e-05	1156
bin	3.23248e-05	1143
bin	3.2396e-05	1137
bin	3.24672e-05	1137
bin	3.25384e-05	1100
bin	3.26096e-05	1122
bin	3.26808e-05	1180
bin	3.2752e-05	1127
bin	3.28232e-05	1133
bin	3.28944e-05	1173
bin	3.29656e-05	1107
bin	3.30368e-05	1138
bin	3.3108e-05	1133
bin	3.31792e-05	1168
bin	3.32504e-05	1194
bin	3.33216e-05	1112
bin	3.33928e-05	1221
bin	3.3464e-05	1159
bin	3.35352e-05	1229
bin	3.36064e-05	1180
bin	3.36776e-05	1233
bin	3.37488e-05	1204
bin	3.382e-05	1236
bin	3.38912e-05	1153
bin	3.39624e-05	1202
bin	3.40336e-05	1145
bin	3.41048e-05	1119
bin	3.4176e-05	1150
bin	3.42472e-05	1144
bin	3.43184e-05	1191
bin	3.43896e-05	1164
bin	3.44608e-05	1131
bin	3.4532e-05	1079
bin	3.46032e-05	1155
bin	3.46744e-05	1179
bin	3.47456e-05	1135
bin	3.48168e-05	1180
bin	3.4888e-05	1133
bin	3.49592e-05	1205
bin	3.50304e-05	1218
bin	3.51016e-05	1181
bin	3.51728e-05	1253
bin	3.5244e-05	1238
bin	3.53152e-05	1254
bin	3.53864e-05	1243
bin	3.54576e-05	1211
bin	3.55288e-05	1173
bin	3.56e-05	4353144
statistic Torus3d_bub.timer 	"Life Times"
field count 6291456
field mean 0.001219182244774
field stddev 0.00095280938349586
field sum 7670.4314489768
field sqrsum 15.06332433471
field min 3.77331845e-07
field max 0.003816945327577
bin	-INF	0
bin	0	6144
bin	8.544e-07	8192
bin	1.7088e-06	8559
bin	2.5632e-06	9584
bin	3.4176e-06	10743
bin	4.272e-06	11993
bin	5.1264e-06	13515
bin	5.9808e-06	15069
bin	6.8352e-06	16531
bin	7.6896e-06	18104
bin	8.544e-06	19884
bin	9.3984e-06	21327
bin	1.02528e-05	16853
bin	1.11072e-05	15675
bin	1.19616e-05	16842
bin	1.2816e-05	17776
bin	1.36704e-05	18575
bin	1.45248e-05	19834
bin	1.53792e-05	20269
bin	1.62336e-05	21047
bin	1.7088e-05	21734
bin	1.79424e-05	21810
bin	1.87968e-05	22432
bin	1.96512e-05	23201
bin	2.05056e-05	23851
bin	2.136e-05	24392
bin	2.22144e-05	24965
bin	2.30688e-05	26003
bin	2.39232e-05	26578
bin	2.47776e-05	27595
bin	2.5632e-05	28563
bin	2.64864e-05	29593
bin	2.73408e-05	30310
bin	2.81952e-05	30785
bin	2.90496e-05	30812
bin	2.9904e-05	30937
bin	3.07584e-05	31053
bin	3.16128e-05	29693
bin	3.24672e-05	28559
bin	3.33216e-05	27090
bin	3.4176e-05	25427
bin	3.50304e-05	23594
bin	3.58848e-05	21848
bin	3.67392e-05	20450
bin	3.75936e-05	18375
bin	3.8448e-05	16884
bin	3.93024e-05	15104
bin	4.01568e-05	13728
bin	4.10112e-05	12566
bin	4.18656e-05	11182
bin	4.272e-05	10236
bin	4.35744e-05	9689
bin	4.44288e-05	9015
bin	4.52832e-05	8610
bin	4.61376e-05	8092
bin	4.6992e-05	7912
bin	4.78464e-05	7521
bin	4.87008e-05	7430
bin	4.95552e-05	7271
bin	5.04096e-05	7167
bin	5.1264e-05	6918
bin	5.21184e-05	6882
bin	5.29728e-05	6829
bin	5.38272e-05	6912
bin	5.46816e-05	6805
bin	5.5536e-05	6850
bin	5.63904e-05	6811
bin	5.72448e-05	6841
bin	5.80992e-05	6807
bin	5.89536e-05	6819
bin	5.9808e-05	6823
bin	6.06624e-05	6830
bin	6.15168e-05	6896
bin	6.23712e-05	6942
bin	6.32256e-05	6915
bin	6.408e-05	6697
bin	6.49344e-05	6648
bin	6.57888e-05	6379
bin	6.66432e-05	6110
bin	6.74976e-05	5836
bin	6.8352e-05	5515
bin	6.92064e-05	5293
bin	7.00608e-05	4907
bin	7.09152e-05	4663
bin	7.17696e-05	4335
bin	7.2624e-05	4161
bin	7.34784e-05	4067
bin	7.43328e-05	3842
bin	7.51872e-05	3729
bin	7.60416e-05	3652
bin	7.6896e-05	3538
bin	7.77504e-05	3506
bin	7.86048e-05	3545
bin	7.94592e-05	3439
bin	8.03136e-05	3493
bin	8.1168e-05	3457
bin	8.20224e-05	3583
bin	8.28768e-05	3598
bin	8.37312e-05	3604
bin	8.45856e-05	3682
bin	8.544e-05	3699
bin	8.62944e-05	3701
bin	8.71488e-05	3688
bin	8.80032e-05	3727
bin	8.88576e-05	3784
bin	8.9712e-05	3701
bin	9.05664e-05	3717
bin	9.14208e-05	3637
bin	9.22752e-05	3716
bin	9.31296e-05	3777
bin	9.3984e-05	3728
bin	9.48384e-05	3573
bin	9.56928e-05	3658
bin	9.65472e-05	3459
bin	9.74016e-05	3386
bin	9.8256e-05	3231
bin	9.91104e-05	3146
bin	9.99648e-05	3002
bin	0.0001008192	2822
bin	0.0001016736	2762
bin	0.000102528	2758
bin	0.0001033824	2591
bin	0.0001042368	2557
bin	0.0001050912	2553
bin	0.0001059456	2367
bin	0.0001068	2352
bin	0.0001076544	2386
bin	0.0001085088	2399
bin	0.0001093632	2328
bin	0.0001102176	2355
bin	0.000111072	2441
bin	0.0001119264	2431
bin	0.0001127808	2513
bin	0.0001136352	2520
bin	0.0001144896	2569
bin	0.000115344	2555
bin	0.0001161984	2643
bin	0.0001170528	2606
bin	0.0001179072	2541
bin	0.0001187616	2533
bin	0.000119616	2547
bin	0.0001204704	2598
bin	0.0001213248	2608
bin	0.0001221792	2691
bin	0.0001230336	2600
bin	0.000123888	2621
bin	0.0001247424	2611
bin	0.0001255968	2659
bin	0.0001264512	2561
bin	0.0001273056	2526
bin	0.00012816	2377
bin	0.0001290144	2368
bin	0.0001298688	2242
bin	0.0001307232	2175
bin	0.0001315776	2104
bin	0.000132432	2051
bin	0.0001332864	2030
bin	0.0001341408	2007
bin	0.0001349952	1950
bin	0.0001358496	1898
bin	0.000136704	1941
bin	0.0001375584	1842
bin	0.0001384128	1840
bin	0.0001392672	1862
bin	0.0001401216	1887
bin	0.000140976	1843
bin	0.0001418304	1871
bin	0.0001426848	1814
bin	0.0001435392	1825
bin	0.0001443936	1841
bin	0.000145248	1888
bin	0.0001461024	1852
bin	0.0001469568	1881
bin	0.0001478112	1963
bin	0.0001486656	1955
bin	0.00014952	2049
bin	0.0001503744	2013
bin	0.0001512288	2114
bin	0.0001520832	2120
bin	0.0001529376	2211
bin	0.000153792	2178
bin	0.0001546464	2191
bin	0.0001555008	2114
bin	0.0001563552	2201
bin	0.0001572096	2188
bin	0.000158064	2087
bin	0.0001589184	2079
bin	0.0001597728	2083
bin	0.0001606272	1964
bin	0.0001614816	1953
bin	0.000162336	1906
bin	0.0001631904	1824
bin	0.0001640448	1765
bin	0.0001648992	1745
bin	0.0001657536	1672
bin	0.000166608	1615
bin	0.0001674624	1595
bin	0.0001683168	1639
bin	0.0001691712	1575
bin	0.0001700256	1599
bin	0.00017088	1581
bin	0.0001717344	1595
bin	0.0001725888	1634
bin	0.0001734432	1634
bin	0.0001742976	1637
bin	0.000175152	1637
bin	0.0001760064	1746
bin	0.0001768608	1674
bin	0.0001777152	1654
bin	0.0001785696	1705
bin	0.000179424	1710
bin	0.0001802784	1729
bin	0.0001811328	1704
bin	0.0001819872	1736
bin	0.0001828416	1821
bin	0.000183696	1760
bin	0.0001845504	1776
bin	0.0001854048	1835
bin	0.0001862592	1869
bin	0.0001871136	1838
bin	0.000187968	1837
bin	0.0001888224	1725
bin	0.0001896768	1773
bin	0.0001905312	1738
bin	0.0001913856	1678
bin	0.00019224	1666
bin	0.0001930944	1597
bin	0.0001939488	1508
bin	0.0001948032	1537
bin	0.0001956576	1496
bin	0.000196512	1502
bin	0.0001973664	1401
bin	0.0001982208	1442
bin	0.0001990752	1485
bin	0.0001999296	1411
bin	0.000200784	1416
bin	0.0002016384	1404
bin	0.0002024928	1461
bin	0.0002033472	1460
bin	0.0002042016	1458
bin	0.000205056	1458
bin	0.0002059104	1506
bin	0.0002067648	1463
bin	0.0002076192	1531
bin	0.0002084736	1528
bin	0.000209328	1567
bin	0.0002101824	1652
bin	0.0002110368	1578
bin	0.0002118912	1606
bin	0.0002127456	1642
bin	0.0002136	1628
bin	0.0002144544	1669
bin	0.0002153088	1636
bin	0.0002161632	1731
bin	0.0002170176	1736
bin	0.000217872	1659
bin	0.0002187264	1562
bin	0.0002195808	1615
bin	0.0002204352	1560
bin	0.0002212896	1500
bin	0.000222144	1469
bin	0.0002229984	1443
bin	0.0002238528	1408
bin	0.0002247072	1347
bin	0.0002255616	1336
bin	0.000226416	1316
bin	0.0002272704	1256
bin	0.0002281248	1295
bin	0.0002289792	1308
bin	0.0002298336	1321
bin	0.000230688	1325
bin	0.0002315424	1310
bin	0.0002323968	1318
bin	0.0002332512	1351
bin	0.0002341056	1307
bin	0.00023496	1288
bin	0.0002358144	1355
bin	0.0002366688	1336
bin	0.0002375232	1379
bin	0.0002383776	1394
bin	0.000239232	1353
bin	0.0002400864	1418
bin	0.0002409408	1341
bin	0.0002417952	1467
bin	0.0002426496	1497
bin	0.000243504	1544
bin	0.0002443584	1473
bin	0.0002452128	1516
bin	0.0002460672	1502
bin	0.0002469216	1529
bin	0.000247776	1499
bin	0.0002486304	1514
bin	0.0002494848	1569
bin	0.0002503392	1473
bin	0.0002511936	1378
bin	0.000252048	1381
bin	0.0002529024	1322
bin	0.0002537568	1301
bin	0.0002546112	1266
bin	0.0002554656	1231
bin	0.00025632	1247
bin	0.0002571744	1182
bin	0.0002580288	1205
bin	0.0002588832	1160
bin	0.0002597376	1144
bin	0.000260592	1159
bin	0.0002614464	1222
bin	0.0002623008	1241
bin	0.0002631552	1223
bin	0.0002640096	1222
bin	0.000264864	1250
bin	0.0002657184	1237
bin	0.0002665728	1241
bin	0.0002674272	1274
bin	0.0002682816	1238
bin	0.000269136	1244
bin	0.0002699904	1343
bin	0.0002708448	1302
bin	0.0002716992	1339
bin	0.0002725536	1299
bin	0.000273408	1320
bin	0.0002742624	1314
bin	0.0002751168	1323
bin	0.0002759712	1335
bin	0.0002768256	1382
bin	0.00027768	1330
bin	0.0002785344	1364
bin	0.0002793888	1424
bin	0.0002802432	1375
bin	0.0002810976	1321
bin	0.000281952	1311
bin	0.0002828064	1304
bin	0.0002836608	1303
bin	0.0002845152	1260
bin	0.0002853696	1213
bin	0.000286224	1217
bin	0.0002870784	1163
bin	0.0002879328	1152
bin	0.0002887872	1080
bin	0.0002896416	1091
bin	0.000290496	1136
bin	0.0002913504	1117
bin	0.0002922048	1053
bin	0.0002930592	1039
bin	0.0002939136	1108
bin	0.000294768	1140
bin	0.0002956224	1131
bin	0.0002964768	1183
bin	0.0002973312	1240
bin	0.0002981856	1170
bin	0.00029904	1203
bin	0.0002998944	1215
bin	0.0003007488	1242
bin	0.0003016032	1277
bin	0.0003024576	1240
bin	0.000303312	1277
bin	0.0003041664	1307
bin	0.0003050208	1226
bin	0.0003058752	1264
bin	0.0003067296	1311
bin	0.000307584	1280
bin	0.0003084384	1266
bin	0.0003092928	1289
bin	0.0003101472	1297
bin	0.0003110016	1264
bin	0.000311856	1296
bin	0.0003127104	1227
bin	0.0003135648	1272
bin	0.0003144192	1198
bin	0.0003152736	1199
bin	0.000316128	1196
bin	0.0003169824	1188
bin	0.0003178368	1114
bin	0.0003186912	1154
bin	0.0003195456	1098
bin	0.0003204	1154
bin	0.0003212544	1090
bin	0.0003221088	1080
bin	0.0003229632	1067
bin	0.0003238176	1084
bin	0.000324672	1100
bin	0.0003255264	1101
bin	0.0003263808	1175
bin	0.0003272352	1127
bin	0.0003280896	1155
bin	0.000328944	1151
bin	0.0003297984	1213
bin	0.0003306528	1154
bin	0.0003315072	1180
bin	0.0003323616	1175
bin	0.000333216	1168
bin	0.0003340704	1166
bin	0.0003349248	1196
bin	0.0003357792	1265
bin	0.0003366336	1220
bin	0.000337488	1271
bin	0.0003383424	1266
bin	0.0003391968	1206
bin	0.0003400512	1193
bin	0.0003409056	1276
bin	0.00034176	1215
bin	0.0003426144	1215
bin	0.0003434688	1197
bin	0.0003443232	1160
bin	0.0003451776	1131
bin	0.000346032	1129
bin	0.0003468864	1050
bin	0.0003477408	1061
bin	0.0003485952	1099
bin	0.0003494496	1096
bin	0.000350304	1081
bin	0.0003511584	1062
bin	0.0003520128	1055
bin	0.0003528672	1051
bin	0.0003537216	1071
bin	0.000354576	1061
bin	0.0003554304	1056
bin	0.0003562848	988
bin	0.0003571392	1049
bin	0.0003579936	991
bin	0.000358848	1043
bin	0.0003597024	1086
bin	0.0003605568	993
bin	0.0003614112	1029
bin	0.0003622656	1104
bin	0.00036312	1084
bin	0.0003639744	1138
bin	0.0003648288	1163
bin	0.0003656832	1106
bin	0.0003665376	1083
bin	0.000367392	1141
bin	0.0003682464	1055
bin	0.0003691008	1139
bin	0.0003699552	1065
bin	0.0003708096	1124
bin	0.000371664	1136
bin	0.0003725184	1157
bin	0.0003733728	1099
bin	0.0003742272	1063
bin	0.0003750816	1032
bin	0.000375936	996
bin	0.0003767904	1031
bin	0.0003776448	1048
bin	0.0003784992	1030
bin	0.0003793536	996
bin	0.000380208	1031
bin	0.0003810624	1012
bin	0.0003819168	1038
bin	0.0003827712	1044
bin	0.0003836256	1049
bin	0.00038448	1029
bin	0.0003853344	1063
bin	0.0003861888	1015
bin	0.0003870432	1048
bin	0.0003878976	1031
bin	0.000388752	1061
bin	0.0003896064	1020
bin	0.0003904608	1034
bin	0.0003913152	995
bin	0.0003921696	1022
bin	0.000393024	1118
bin	0.0003938784	1008
bin	0.0003947328	1061
bin	0.0003955872	1093
bin	0.0003964416	1129
bin	0.000397296	1093
bin	0.0003981504	1035
bin	0.0003990048	1099
bin	0.0003998592	1068
bin	0.0004007136	1059
bin	0.000401568	1148
bin	0.0004024224	1105
bin	0.0004032768	1059
bin	0.0004041312	1117
bin	0.0004049856	1102
bin	0.00040584	1096
bin	0.0004066944	1048
bin	0.0004075488	1086
bin	0.0004084032	1112
bin	0.0004092576	1011
bin	0.000410112	985
bin	0.0004109664	988
bin	0.0004118208	990
bin	0.0004126752	1010
bin	0.0004135296	1024
bin	0.000414384	1016
bin	0.0004152384	962
bin	0.0004160928	947
bin	0.0004169472	922
bin	0.0004178016	980
bin	0.000418656	934
bin	0.0004195104	978
bin	0.0004203648	988
bin	0.0004212192	1028
bin	0.0004220736	996
bin	0.000422928	1063
bin	0.0004237824	1027
bin	0.0004246368	1010
bin	0.0004254912	1060
bin	0.0004263456	990
bin	0.0004272	4344870
