version 2
run Transposition-52-20120710-13:23:57-25470
attr alg 0
attr buf 8
attr configname Transposition
attr datetime 20120710-13:23:57
attr delta 0.8
attr experiment Transposition
attr ext false
attr inifile altro.ini
attr iterationvars "$buf=8, $ext=false, $ofedge=1, $delta=0.8, $alg=0"
attr iterationvars2 "$buf=8, $ext=false, $ofedge=1, $delta=0.8, $alg=0, $repetition=0"
attr measurement "$buf=8, $ext=false, $ofedge=1, $delta=0.8, $alg=0"
attr network Torus3d_bub
attr ofedge 1
attr processid 25470
attr repetition 0
attr replication #0
attr resultdir altro-results
attr runnumber 52
attr seedset 52

scalar . 	alg 	0
scalar . 	buf 	8
scalar . 	delta 	0.8
scalar . 	ofedge 	1
scalar Torus3d_bub.timer 	#endTime 	0.003864886333332
scalar Torus3d_bub.timer 	#totalHops 	75497472
scalar Torus3d_bub.timer 	#totalPacks 	6291456
scalar Torus3d_bub.timer 	#totalDerouted 	0
scalar Torus3d_bub.timer 	#totalOutFlanked 	0
scalar Torus3d_bub.timer 	#totalCQRed 	0
scalar Torus3d_bub.timer 	#LB 	0.000786432
scalar Torus3d_bub.timer 	#ratio 	0.20348127530105
statistic Torus3d_bub.timer 	"Hop Times"
field count 6193152
field mean 9.2542419392376e-05
field stddev 7.6650987373197e-05
field sum 573.12926974473
field sqrsum 0.089425846775933
field min 3.74222222e-07
field max 0.000718304333333
bin	-INF	0
bin	0	0
bin	7.12e-08	0
bin	1.424e-07	0
bin	2.136e-07	0
bin	2.848e-07	0
bin	3.56e-07	267
bin	4.272e-07	1167
bin	4.984e-07	2042
bin	5.696e-07	3237
bin	6.408e-07	4378
bin	7.12e-07	5402
bin	7.832e-07	6372
bin	8.544e-07	6866
bin	9.256e-07	7961
bin	9.968e-07	8783
bin	1.068e-06	9842
bin	1.1392e-06	10517
bin	1.2104e-06	11639
bin	1.2816e-06	12757
bin	1.3528e-06	14269
bin	1.424e-06	15596
bin	1.4952e-06	16969
bin	1.5664e-06	18026
bin	1.6376e-06	18989
bin	1.7088e-06	19877
bin	1.78e-06	20389
bin	1.8512e-06	20974
bin	1.9224e-06	21538
bin	1.9936e-06	21975
bin	2.0648e-06	21932
bin	2.136e-06	21828
bin	2.2072e-06	21644
bin	2.2784e-06	20783
bin	2.3496e-06	20806
bin	2.4208e-06	20414
bin	2.492e-06	19954
bin	2.5632e-06	19251
bin	2.6344e-06	18656
bin	2.7056e-06	18408
bin	2.7768e-06	17736
bin	2.848e-06	17138
bin	2.9192e-06	16673
bin	2.9904e-06	16242
bin	3.0616e-06	15804
bin	3.1328e-06	15171
bin	3.204e-06	14787
bin	3.2752e-06	14363
bin	3.3464e-06	13892
bin	3.4176e-06	13414
bin	3.4888e-06	13117
bin	3.56e-06	12773
bin	3.6312e-06	12175
bin	3.7024e-06	11736
bin	3.7736e-06	11493
bin	3.8448e-06	11161
bin	3.916e-06	10809
bin	3.9872e-06	10490
bin	4.0584e-06	10068
bin	4.1296e-06	9619
bin	4.2008e-06	9345
bin	4.272e-06	9053
bin	4.3432e-06	8900
bin	4.4144e-06	8564
bin	4.4856e-06	8425
bin	4.5568e-06	8234
bin	4.628e-06	8188
bin	4.6992e-06	7970
bin	4.7704e-06	7854
bin	4.8416e-06	7670
bin	4.9128e-06	7525
bin	4.984e-06	7373
bin	5.0552e-06	7077
bin	5.1264e-06	6991
bin	5.1976e-06	7045
bin	5.2688e-06	6950
bin	5.34e-06	6761
bin	5.4112e-06	6603
bin	5.4824e-06	6539
bin	5.5536e-06	6459
bin	5.6248e-06	6306
bin	5.696e-06	6375
bin	5.7672e-06	6138
bin	5.8384e-06	6035
bin	5.9096e-06	6008
bin	5.9808e-06	5839
bin	6.052e-06	5679
bin	6.1232e-06	5794
bin	6.1944e-06	5730
bin	6.2656e-06	5505
bin	6.3368e-06	5354
bin	6.408e-06	5375
bin	6.4792e-06	5448
bin	6.5504e-06	5305
bin	6.6216e-06	5264
bin	6.6928e-06	5134
bin	6.764e-06	5029
bin	6.8352e-06	4977
bin	6.9064e-06	4916
bin	6.9776e-06	4905
bin	7.0488e-06	4679
bin	7.12e-06	4726
bin	7.1912e-06	4693
bin	7.2624e-06	4632
bin	7.3336e-06	4660
bin	7.4048e-06	4723
bin	7.476e-06	4571
bin	7.5472e-06	4444
bin	7.6184e-06	4371
bin	7.6896e-06	4544
bin	7.7608e-06	4313
bin	7.832e-06	4286
bin	7.9032e-06	4294
bin	7.9744e-06	4227
bin	8.0456e-06	4163
bin	8.1168e-06	4037
bin	8.188e-06	3946
bin	8.2592e-06	4044
bin	8.3304e-06	3914
bin	8.4016e-06	3892
bin	8.4728e-06	3984
bin	8.544e-06	3823
bin	8.6152e-06	3934
bin	8.6864e-06	3765
bin	8.7576e-06	3739
bin	8.8288e-06	3682
bin	8.9e-06	3652
bin	8.9712e-06	3669
bin	9.0424e-06	3618
bin	9.1136e-06	3594
bin	9.1848e-06	3673
bin	9.256e-06	3614
bin	9.3272e-06	3520
bin	9.3984e-06	3556
bin	9.4696e-06	3603
bin	9.5408e-06	3628
bin	9.612e-06	3609
bin	9.6832e-06	3619
bin	9.7544e-06	3452
bin	9.8256e-06	3519
bin	9.8968e-06	3365
bin	9.968e-06	3427
bin	1.00392e-05	3333
bin	1.01104e-05	3272
bin	1.01816e-05	3309
bin	1.02528e-05	3330
bin	1.0324e-05	3278
bin	1.03952e-05	3101
bin	1.04664e-05	3182
bin	1.05376e-05	3218
bin	1.06088e-05	3209
bin	1.068e-05	3227
bin	1.07512e-05	3128
bin	1.08224e-05	3113
bin	1.08936e-05	3023
bin	1.09648e-05	3121
bin	1.1036e-05	3110
bin	1.11072e-05	3085
bin	1.11784e-05	3070
bin	1.12496e-05	2976
bin	1.13208e-05	3006
bin	1.1392e-05	3019
bin	1.14632e-05	3115
bin	1.15344e-05	3082
bin	1.16056e-05	3061
bin	1.16768e-05	3089
bin	1.1748e-05	3064
bin	1.18192e-05	3025
bin	1.18904e-05	2997
bin	1.19616e-05	3071
bin	1.20328e-05	3034
bin	1.2104e-05	3073
bin	1.21752e-05	2879
bin	1.22464e-05	2991
bin	1.23176e-05	2848
bin	1.23888e-05	2934
bin	1.246e-05	2906
bin	1.25312e-05	2931
bin	1.26024e-05	2993
bin	1.26736e-05	2944
bin	1.27448e-05	2954
bin	1.2816e-05	2818
bin	1.28872e-05	2734
bin	1.29584e-05	2757
bin	1.30296e-05	2809
bin	1.31008e-05	2683
bin	1.3172e-05	2632
bin	1.32432e-05	2647
bin	1.33144e-05	2709
bin	1.33856e-05	2723
bin	1.34568e-05	2632
bin	1.3528e-05	2656
bin	1.35992e-05	2705
bin	1.36704e-05	2659
bin	1.37416e-05	2748
bin	1.38128e-05	2767
bin	1.3884e-05	2711
bin	1.39552e-05	2712
bin	1.40264e-05	2780
bin	1.40976e-05	2664
bin	1.41688e-05	2773
bin	1.424e-05	2671
bin	1.43112e-05	2613
bin	1.43824e-05	2610
bin	1.44536e-05	2612
bin	1.45248e-05	2607
bin	1.4596e-05	2533
bin	1.46672e-05	2599
bin	1.47384e-05	2741
bin	1.48096e-05	2559
bin	1.48808e-05	2565
bin	1.4952e-05	2566
bin	1.50232e-05	2491
bin	1.50944e-05	2527
bin	1.51656e-05	2439
bin	1.52368e-05	2523
bin	1.5308e-05	2400
bin	1.53792e-05	2429
bin	1.54504e-05	2395
bin	1.55216e-05	2423
bin	1.55928e-05	2454
bin	1.5664e-05	2388
bin	1.57352e-05	2454
bin	1.58064e-05	2543
bin	1.58776e-05	2408
bin	1.59488e-05	2394
bin	1.602e-05	2460
bin	1.60912e-05	2422
bin	1.61624e-05	2383
bin	1.62336e-05	2386
bin	1.63048e-05	2364
bin	1.6376e-05	2260
bin	1.64472e-05	2334
bin	1.65184e-05	2321
bin	1.65896e-05	2297
bin	1.66608e-05	2323
bin	1.6732e-05	2212
bin	1.68032e-05	2203
bin	1.68744e-05	2225
bin	1.69456e-05	2214
bin	1.70168e-05	2147
bin	1.7088e-05	2227
bin	1.71592e-05	2212
bin	1.72304e-05	2182
bin	1.73016e-05	2171
bin	1.73728e-05	2148
bin	1.7444e-05	2199
bin	1.75152e-05	2022
bin	1.75864e-05	2141
bin	1.76576e-05	2204
bin	1.77288e-05	2182
bin	1.78e-05	2102
bin	1.78712e-05	2164
bin	1.79424e-05	2113
bin	1.80136e-05	2110
bin	1.80848e-05	2109
bin	1.8156e-05	2146
bin	1.82272e-05	2128
bin	1.82984e-05	2155
bin	1.83696e-05	2111
bin	1.84408e-05	2094
bin	1.8512e-05	2050
bin	1.85832e-05	2106
bin	1.86544e-05	2195
bin	1.87256e-05	2142
bin	1.87968e-05	2099
bin	1.8868e-05	2125
bin	1.89392e-05	2092
bin	1.90104e-05	2087
bin	1.90816e-05	2105
bin	1.91528e-05	2073
bin	1.9224e-05	2193
bin	1.92952e-05	2041
bin	1.93664e-05	2025
bin	1.94376e-05	2095
bin	1.95088e-05	2015
bin	1.958e-05	2044
bin	1.96512e-05	2044
bin	1.97224e-05	2082
bin	1.97936e-05	2008
bin	1.98648e-05	2043
bin	1.9936e-05	1946
bin	2.00072e-05	2010
bin	2.00784e-05	1915
bin	2.01496e-05	1920
bin	2.02208e-05	1944
bin	2.0292e-05	1944
bin	2.03632e-05	1921
bin	2.04344e-05	1918
bin	2.05056e-05	1882
bin	2.05768e-05	1913
bin	2.0648e-05	1848
bin	2.07192e-05	1877
bin	2.07904e-05	2005
bin	2.08616e-05	1952
bin	2.09328e-05	1966
bin	2.1004e-05	1931
bin	2.10752e-05	1978
bin	2.11464e-05	1933
bin	2.12176e-05	1930
bin	2.12888e-05	1981
bin	2.136e-05	1941
bin	2.14312e-05	1901
bin	2.15024e-05	1999
bin	2.15736e-05	1934
bin	2.16448e-05	1958
bin	2.1716e-05	1981
bin	2.17872e-05	1982
bin	2.18584e-05	1908
bin	2.19296e-05	1882
bin	2.20008e-05	1868
bin	2.2072e-05	1881
bin	2.21432e-05	1864
bin	2.22144e-05	1864
bin	2.22856e-05	1787
bin	2.23568e-05	1818
bin	2.2428e-05	1879
bin	2.24992e-05	1904
bin	2.25704e-05	1863
bin	2.26416e-05	1914
bin	2.27128e-05	1895
bin	2.2784e-05	1920
bin	2.28552e-05	1902
bin	2.29264e-05	1941
bin	2.29976e-05	1888
bin	2.30688e-05	1904
bin	2.314e-05	1792
bin	2.32112e-05	1906
bin	2.32824e-05	1915
bin	2.33536e-05	1854
bin	2.34248e-05	1903
bin	2.3496e-05	1914
bin	2.35672e-05	1950
bin	2.36384e-05	1903
bin	2.37096e-05	1870
bin	2.37808e-05	1873
bin	2.3852e-05	1881
bin	2.39232e-05	1859
bin	2.39944e-05	1820
bin	2.40656e-05	1845
bin	2.41368e-05	1852
bin	2.4208e-05	1858
bin	2.42792e-05	1852
bin	2.43504e-05	1724
bin	2.44216e-05	1816
bin	2.44928e-05	1824
bin	2.4564e-05	1837
bin	2.46352e-05	1878
bin	2.47064e-05	1885
bin	2.47776e-05	1862
bin	2.48488e-05	1954
bin	2.492e-05	1933
bin	2.49912e-05	1975
bin	2.50624e-05	1958
bin	2.51336e-05	1954
bin	2.52048e-05	1931
bin	2.5276e-05	1889
bin	2.53472e-05	1907
bin	2.54184e-05	1890
bin	2.54896e-05	1852
bin	2.55608e-05	1830
bin	2.5632e-05	1845
bin	2.57032e-05	1823
bin	2.57744e-05	1846
bin	2.58456e-05	1759
bin	2.59168e-05	1819
bin	2.5988e-05	1777
bin	2.60592e-05	1815
bin	2.61304e-05	1807
bin	2.62016e-05	1876
bin	2.62728e-05	1796
bin	2.6344e-05	1839
bin	2.64152e-05	1858
bin	2.64864e-05	1769
bin	2.65576e-05	1840
bin	2.66288e-05	1789
bin	2.67e-05	1845
bin	2.67712e-05	1833
bin	2.68424e-05	1755
bin	2.69136e-05	1798
bin	2.69848e-05	1841
bin	2.7056e-05	1802
bin	2.71272e-05	1775
bin	2.71984e-05	1824
bin	2.72696e-05	1794
bin	2.73408e-05	1800
bin	2.7412e-05	1768
bin	2.74832e-05	1764
bin	2.75544e-05	1731
bin	2.76256e-05	1693
bin	2.76968e-05	1753
bin	2.7768e-05	1740
bin	2.78392e-05	1731
bin	2.79104e-05	1795
bin	2.79816e-05	1783
bin	2.80528e-05	1807
bin	2.8124e-05	1807
bin	2.81952e-05	1736
bin	2.82664e-05	1731
bin	2.83376e-05	1793
bin	2.84088e-05	1809
bin	2.848e-05	1751
bin	2.85512e-05	1741
bin	2.86224e-05	1771
bin	2.86936e-05	1753
bin	2.87648e-05	1731
bin	2.8836e-05	1690
bin	2.89072e-05	1800
bin	2.89784e-05	1720
bin	2.90496e-05	1642
bin	2.91208e-05	1648
bin	2.9192e-05	1715
bin	2.92632e-05	1702
bin	2.93344e-05	1725
bin	2.94056e-05	1636
bin	2.94768e-05	1713
bin	2.9548e-05	1702
bin	2.96192e-05	1650
bin	2.96904e-05	1633
bin	2.97616e-05	1663
bin	2.98328e-05	1593
bin	2.9904e-05	1664
bin	2.99752e-05	1667
bin	3.00464e-05	1656
bin	3.01176e-05	1706
bin	3.01888e-05	1726
bin	3.026e-05	1741
bin	3.03312e-05	1763
bin	3.04024e-05	1749
bin	3.04736e-05	1662
bin	3.05448e-05	1723
bin	3.0616e-05	1701
bin	3.06872e-05	1724
bin	3.07584e-05	1782
bin	3.08296e-05	1730
bin	3.09008e-05	1731
bin	3.0972e-05	1814
bin	3.10432e-05	1781
bin	3.11144e-05	1759
bin	3.11856e-05	1752
bin	3.12568e-05	1713
bin	3.1328e-05	1805
bin	3.13992e-05	1700
bin	3.14704e-05	1780
bin	3.15416e-05	1685
bin	3.16128e-05	1626
bin	3.1684e-05	1709
bin	3.17552e-05	1671
bin	3.18264e-05	1675
bin	3.18976e-05	1619
bin	3.19688e-05	1718
bin	3.204e-05	1658
bin	3.21112e-05	1706
bin	3.21824e-05	1715
bin	3.22536e-05	1689
bin	3.23248e-05	1669
bin	3.2396e-05	1730
bin	3.24672e-05	1666
bin	3.25384e-05	1727
bin	3.26096e-05	1719
bin	3.26808e-05	1712
bin	3.2752e-05	1759
bin	3.28232e-05	1796
bin	3.28944e-05	1711
bin	3.29656e-05	1768
bin	3.30368e-05	1688
bin	3.3108e-05	1684
bin	3.31792e-05	1701
bin	3.32504e-05	1705
bin	3.33216e-05	1798
bin	3.33928e-05	1710
bin	3.3464e-05	1788
bin	3.35352e-05	1803
bin	3.36064e-05	1703
bin	3.36776e-05	1781
bin	3.37488e-05	1787
bin	3.382e-05	1719
bin	3.38912e-05	1741
bin	3.39624e-05	1735
bin	3.40336e-05	1745
bin	3.41048e-05	1735
bin	3.4176e-05	1735
bin	3.42472e-05	1757
bin	3.43184e-05	1820
bin	3.43896e-05	1759
bin	3.44608e-05	1762
bin	3.4532e-05	1746
bin	3.46032e-05	1682
bin	3.46744e-05	1736
bin	3.47456e-05	1772
bin	3.48168e-05	1781
bin	3.4888e-05	1657
bin	3.49592e-05	1759
bin	3.50304e-05	1767
bin	3.51016e-05	1771
bin	3.51728e-05	1677
bin	3.5244e-05	1698
bin	3.53152e-05	1715
bin	3.53864e-05	1749
bin	3.54576e-05	1768
bin	3.55288e-05	1785
bin	3.56e-05	4256579
statistic Torus3d_bub.timer 	"Life Times"
field count 6291456
field mean 0.0010954667332172
field stddev 0.00090329156588605
field sum 6892.0807514997
field sqrsum 12.683467629665
field min 1.64e-07
field max 0.003821343333332
bin	-INF	0
bin	0	6208
bin	8.544e-07	8192
bin	1.7088e-06	8831
bin	2.5632e-06	9473
bin	3.4176e-06	10361
bin	4.272e-06	11310
bin	5.1264e-06	12494
bin	5.9808e-06	13786
bin	6.8352e-06	15071
bin	7.6896e-06	16273
bin	8.544e-06	17659
bin	9.3984e-06	19266
bin	1.02528e-05	14448
bin	1.11072e-05	13830
bin	1.19616e-05	14937
bin	1.2816e-05	15629
bin	1.36704e-05	16454
bin	1.45248e-05	17073
bin	1.53792e-05	17698
bin	1.62336e-05	18592
bin	1.7088e-05	18839
bin	1.79424e-05	18995
bin	1.87968e-05	19453
bin	1.96512e-05	19831
bin	2.05056e-05	20379
bin	2.136e-05	20926
bin	2.22144e-05	21184
bin	2.30688e-05	21798
bin	2.39232e-05	22217
bin	2.47776e-05	22515
bin	2.5632e-05	22537
bin	2.64864e-05	22931
bin	2.73408e-05	22903
bin	2.81952e-05	22624
bin	2.90496e-05	22555
bin	2.9904e-05	22144
bin	3.07584e-05	22053
bin	3.16128e-05	21277
bin	3.24672e-05	20445
bin	3.33216e-05	19707
bin	3.4176e-05	18724
bin	3.50304e-05	18092
bin	3.58848e-05	17152
bin	3.67392e-05	15963
bin	3.75936e-05	15158
bin	3.8448e-05	13937
bin	3.93024e-05	13034
bin	4.01568e-05	12123
bin	4.10112e-05	11153
bin	4.18656e-05	10489
bin	4.272e-05	10074
bin	4.35744e-05	9613
bin	4.44288e-05	9187
bin	4.52832e-05	8827
bin	4.61376e-05	8593
bin	4.6992e-05	8036
bin	4.78464e-05	8036
bin	4.87008e-05	7901
bin	4.95552e-05	7634
bin	5.04096e-05	7593
bin	5.1264e-05	7523
bin	5.21184e-05	7420
bin	5.29728e-05	7175
bin	5.38272e-05	7174
bin	5.46816e-05	7155
bin	5.5536e-05	7088
bin	5.63904e-05	6946
bin	5.72448e-05	6980
bin	5.80992e-05	7030
bin	5.89536e-05	6905
bin	5.9808e-05	6943
bin	6.06624e-05	6984
bin	6.15168e-05	6903
bin	6.23712e-05	7012
bin	6.32256e-05	6866
bin	6.408e-05	6856
bin	6.49344e-05	6630
bin	6.57888e-05	6538
bin	6.66432e-05	6412
bin	6.74976e-05	6317
bin	6.8352e-05	6043
bin	6.92064e-05	5905
bin	7.00608e-05	5738
bin	7.09152e-05	5476
bin	7.17696e-05	5492
bin	7.2624e-05	5304
bin	7.34784e-05	5165
bin	7.43328e-05	5230
bin	7.51872e-05	4996
bin	7.60416e-05	4937
bin	7.6896e-05	4888
bin	7.77504e-05	4762
bin	7.86048e-05	4756
bin	7.94592e-05	4706
bin	8.03136e-05	4544
bin	8.1168e-05	4562
bin	8.20224e-05	4643
bin	8.28768e-05	4642
bin	8.37312e-05	4519
bin	8.45856e-05	4582
bin	8.544e-05	4542
bin	8.62944e-05	4421
bin	8.71488e-05	4476
bin	8.80032e-05	4384
bin	8.88576e-05	4410
bin	8.9712e-05	4448
bin	9.05664e-05	4543
bin	9.14208e-05	4369
bin	9.22752e-05	4405
bin	9.31296e-05	4434
bin	9.3984e-05	4373
bin	9.48384e-05	4407
bin	9.56928e-05	4328
bin	9.65472e-05	4265
bin	9.74016e-05	4185
bin	9.8256e-05	4211
bin	9.91104e-05	4069
bin	9.99648e-05	4045
bin	0.0001008192	4078
bin	0.0001016736	3977
bin	0.000102528	3917
bin	0.0001033824	3910
bin	0.0001042368	3775
bin	0.0001050912	3714
bin	0.0001059456	3620
bin	0.0001068	3673
bin	0.0001076544	3555
bin	0.0001085088	3520
bin	0.0001093632	3469
bin	0.0001102176	3540
bin	0.000111072	3465
bin	0.0001119264	3413
bin	0.0001127808	3395
bin	0.0001136352	3485
bin	0.0001144896	3426
bin	0.000115344	3433
bin	0.0001161984	3448
bin	0.0001170528	3453
bin	0.0001179072	3433
bin	0.0001187616	3551
bin	0.000119616	3485
bin	0.0001204704	3480
bin	0.0001213248	3443
bin	0.0001221792	3497
bin	0.0001230336	3443
bin	0.000123888	3515
bin	0.0001247424	3566
bin	0.0001255968	3571
bin	0.0001264512	3610
bin	0.0001273056	3519
bin	0.00012816	3532
bin	0.0001290144	3525
bin	0.0001298688	3466
bin	0.0001307232	3330
bin	0.0001315776	3311
bin	0.000132432	3177
bin	0.0001332864	3187
bin	0.0001341408	3084
bin	0.0001349952	3164
bin	0.0001358496	3103
bin	0.000136704	3085
bin	0.0001375584	3065
bin	0.0001384128	3093
bin	0.0001392672	2947
bin	0.0001401216	3066
bin	0.000140976	2944
bin	0.0001418304	2972
bin	0.0001426848	2884
bin	0.0001435392	2870
bin	0.0001443936	2916
bin	0.000145248	2952
bin	0.0001461024	2848
bin	0.0001469568	2935
bin	0.0001478112	2966
bin	0.0001486656	2983
bin	0.00014952	3003
bin	0.0001503744	3091
bin	0.0001512288	3031
bin	0.0001520832	3165
bin	0.0001529376	3227
bin	0.000153792	3119
bin	0.0001546464	3205
bin	0.0001555008	3199
bin	0.0001563552	3194
bin	0.0001572096	3291
bin	0.000158064	3172
bin	0.0001589184	3085
bin	0.0001597728	3116
bin	0.0001606272	3065
bin	0.0001614816	3059
bin	0.000162336	3014
bin	0.0001631904	2960
bin	0.0001640448	2831
bin	0.0001648992	2840
bin	0.0001657536	2766
bin	0.000166608	2658
bin	0.0001674624	2685
bin	0.0001683168	2614
bin	0.0001691712	2474
bin	0.0001700256	2619
bin	0.00017088	2610
bin	0.0001717344	2523
bin	0.0001725888	2549
bin	0.0001734432	2534
bin	0.0001742976	2507
bin	0.000175152	2477
bin	0.0001760064	2530
bin	0.0001768608	2598
bin	0.0001777152	2543
bin	0.0001785696	2602
bin	0.000179424	2564
bin	0.0001802784	2518
bin	0.0001811328	2612
bin	0.0001819872	2610
bin	0.0001828416	2680
bin	0.000183696	2564
bin	0.0001845504	2597
bin	0.0001854048	2592
bin	0.0001862592	2646
bin	0.0001871136	2613
bin	0.000187968	2625
bin	0.0001888224	2664
bin	0.0001896768	2610
bin	0.0001905312	2530
bin	0.0001913856	2610
bin	0.00019224	2530
bin	0.0001930944	2475
bin	0.0001939488	2420
bin	0.0001948032	2339
bin	0.0001956576	2279
bin	0.000196512	2269
bin	0.0001973664	2290
bin	0.0001982208	2275
bin	0.0001990752	2257
bin	0.0001999296	2264
bin	0.000200784	2132
bin	0.0002016384	2186
bin	0.0002024928	2161
bin	0.0002033472	2139
bin	0.0002042016	2175
bin	0.000205056	2187
bin	0.0002059104	2160
bin	0.0002067648	2196
bin	0.0002076192	2282
bin	0.0002084736	2232
bin	0.000209328	2191
bin	0.0002101824	2208
bin	0.0002110368	2318
bin	0.0002118912	2327
bin	0.0002127456	2327
bin	0.0002136	2259
bin	0.0002144544	2300
bin	0.0002153088	2368
bin	0.0002161632	2382
bin	0.0002170176	2540
bin	0.000217872	2415
bin	0.0002187264	2380
bin	0.0002195808	2427
bin	0.0002204352	2404
bin	0.0002212896	2374
bin	0.000222144	2302
bin	0.0002229984	2291
bin	0.0002238528	2274
bin	0.0002247072	2253
bin	0.0002255616	2207
bin	0.000226416	2252
bin	0.0002272704	2144
bin	0.0002281248	2266
bin	0.0002289792	2116
bin	0.0002298336	2067
bin	0.000230688	2098
bin	0.0002315424	2074
bin	0.0002323968	2091
bin	0.0002332512	2085
bin	0.0002341056	2035
bin	0.00023496	2050
bin	0.0002358144	2052
bin	0.0002366688	2001
bin	0.0002375232	2132
bin	0.0002383776	2091
bin	0.000239232	2181
bin	0.0002400864	2066
bin	0.0002409408	2148
bin	0.0002417952	2128
bin	0.0002426496	2147
bin	0.000243504	2094
bin	0.0002443584	2164
bin	0.0002452128	2111
bin	0.0002460672	2188
bin	0.0002469216	2230
bin	0.000247776	2240
bin	0.0002486304	2216
bin	0.0002494848	2217
bin	0.0002503392	2306
bin	0.0002511936	2305
bin	0.000252048	2261
bin	0.0002529024	2259
bin	0.0002537568	2303
bin	0.0002546112	2053
bin	0.0002554656	2039
bin	0.00025632	2029
bin	0.0002571744	1945
bin	0.0002580288	1998
bin	0.0002588832	1882
bin	0.0002597376	1821
bin	0.000260592	1858
bin	0.0002614464	1915
bin	0.0002623008	1879
bin	0.0002631552	1875
bin	0.0002640096	1817
bin	0.000264864	1917
bin	0.0002657184	1884
bin	0.0002665728	1819
bin	0.0002674272	1849
bin	0.0002682816	1875
bin	0.000269136	1947
bin	0.0002699904	1943
bin	0.0002708448	1921
bin	0.0002716992	1951
bin	0.0002725536	2027
bin	0.000273408	2015
bin	0.0002742624	2041
bin	0.0002751168	2030
bin	0.0002759712	2044
bin	0.0002768256	2054
bin	0.00027768	2091
bin	0.0002785344	2130
bin	0.0002793888	2090
bin	0.0002802432	2054
bin	0.0002810976	2101
bin	0.000281952	2103
bin	0.0002828064	2126
bin	0.0002836608	2055
bin	0.0002845152	2045
bin	0.0002853696	2058
bin	0.000286224	1999
bin	0.0002870784	1945
bin	0.0002879328	1890
bin	0.0002887872	1902
bin	0.0002896416	1870
bin	0.000290496	1830
bin	0.0002913504	1813
bin	0.0002922048	1800
bin	0.0002930592	1770
bin	0.0002939136	1933
bin	0.000294768	1876
bin	0.0002956224	1939
bin	0.0002964768	1935
bin	0.0002973312	1898
bin	0.0002981856	1865
bin	0.00029904	1873
bin	0.0002998944	1926
bin	0.0003007488	1887
bin	0.0003016032	1963
bin	0.0003024576	1924
bin	0.000303312	1958
bin	0.0003041664	1863
bin	0.0003050208	1982
bin	0.0003058752	1973
bin	0.0003067296	1924
bin	0.000307584	2032
bin	0.0003084384	2074
bin	0.0003092928	2074
bin	0.0003101472	2107
bin	0.0003110016	2121
bin	0.000311856	1996
bin	0.0003127104	1964
bin	0.0003135648	1954
bin	0.0003144192	1884
bin	0.0003152736	1901
bin	0.000316128	1838
bin	0.0003169824	1837
bin	0.0003178368	1850
bin	0.0003186912	1792
bin	0.0003195456	1865
bin	0.0003204	1791
bin	0.0003212544	1776
bin	0.0003221088	1743
bin	0.0003229632	1782
bin	0.0003238176	1781
bin	0.000324672	1737
bin	0.0003255264	1786
bin	0.0003263808	1852
bin	0.0003272352	1785
bin	0.0003280896	1816
bin	0.000328944	1839
bin	0.0003297984	1865
bin	0.0003306528	1744
bin	0.0003315072	1751
bin	0.0003323616	1787
bin	0.000333216	1804
bin	0.0003340704	1814
bin	0.0003349248	1811
bin	0.0003357792	1776
bin	0.0003366336	1770
bin	0.000337488	1830
bin	0.0003383424	1802
bin	0.0003391968	1862
bin	0.0003400512	1881
bin	0.0003409056	1894
bin	0.00034176	1836
bin	0.0003426144	1835
bin	0.0003434688	1884
bin	0.0003443232	1851
bin	0.0003451776	1837
bin	0.000346032	1881
bin	0.0003468864	1851
bin	0.0003477408	1798
bin	0.0003485952	1749
bin	0.0003494496	1610
bin	0.000350304	1679
bin	0.0003511584	1624
bin	0.0003520128	1727
bin	0.0003528672	1659
bin	0.0003537216	1710
bin	0.000354576	1677
bin	0.0003554304	1662
bin	0.0003562848	1555
bin	0.0003571392	1629
bin	0.0003579936	1638
bin	0.000358848	1536
bin	0.0003597024	1583
bin	0.0003605568	1623
bin	0.0003614112	1666
bin	0.0003622656	1652
bin	0.00036312	1639
bin	0.0003639744	1703
bin	0.0003648288	1751
bin	0.0003656832	1667
bin	0.0003665376	1771
bin	0.000367392	1713
bin	0.0003682464	1801
bin	0.0003691008	1778
bin	0.0003699552	1739
bin	0.0003708096	1764
bin	0.000371664	1744
bin	0.0003725184	1842
bin	0.0003733728	1855
bin	0.0003742272	1782
bin	0.0003750816	1782
bin	0.000375936	1771
bin	0.0003767904	1727
bin	0.0003776448	1670
bin	0.0003784992	1713
bin	0.0003793536	1685
bin	0.000380208	1688
bin	0.0003810624	1613
bin	0.0003819168	1625
bin	0.0003827712	1569
bin	0.0003836256	1556
bin	0.00038448	1581
bin	0.0003853344	1563
bin	0.0003861888	1536
bin	0.0003870432	1573
bin	0.0003878976	1567
bin	0.000388752	1573
bin	0.0003896064	1560
bin	0.0003904608	1582
bin	0.0003913152	1536
bin	0.0003921696	1518
bin	0.000393024	1551
bin	0.0003938784	1537
bin	0.0003947328	1539
bin	0.0003955872	1596
bin	0.0003964416	1579
bin	0.000397296	1540
bin	0.0003981504	1651
bin	0.0003990048	1588
bin	0.0003998592	1683
bin	0.0004007136	1630
bin	0.000401568	1649
bin	0.0004024224	1650
bin	0.0004032768	1702
bin	0.0004041312	1649
bin	0.0004049856	1648
bin	0.00040584	1662
bin	0.0004066944	1623
bin	0.0004075488	1598
bin	0.0004084032	1588
bin	0.0004092576	1551
bin	0.000410112	1506
bin	0.0004109664	1494
bin	0.0004118208	1514
bin	0.0004126752	1550
bin	0.0004135296	1437
bin	0.000414384	1425
bin	0.0004152384	1376
bin	0.0004160928	1420
bin	0.0004169472	1464
bin	0.0004178016	1448
bin	0.000418656	1485
bin	0.0004195104	1493
bin	0.0004203648	1539
bin	0.0004212192	1525
bin	0.0004220736	1498
bin	0.000422928	1523
bin	0.0004237824	1548
bin	0.0004246368	1534
bin	0.0004254912	1570
bin	0.0004263456	1541
bin	0.0004272	4186909
