version 2
run Transposition-59-20120710-14:04:39-25485
attr alg 3
attr buf 8
attr configname Transposition
attr datetime 20120710-14:04:39
attr delta 1
attr experiment Transposition
attr ext false
attr inifile altro.ini
attr iterationvars "$buf=8, $ext=false, $ofedge=1, $delta=1, $alg=3"
attr iterationvars2 "$buf=8, $ext=false, $ofedge=1, $delta=1, $alg=3, $repetition=0"
attr measurement "$buf=8, $ext=false, $ofedge=1, $delta=1, $alg=3"
attr network Torus3d_bub
attr ofedge 1
attr processid 25485
attr repetition 0
attr replication #0
attr resultdir altro-results
attr runnumber 59
attr seedset 59

scalar . 	alg 	3
scalar . 	buf 	8
scalar . 	delta 	1
scalar . 	ofedge 	1
scalar Torus3d_bub.timer 	#endTime 	0.004905922992854
scalar Torus3d_bub.timer 	#totalHops 	84508676
scalar Torus3d_bub.timer 	#totalPacks 	6291456
scalar Torus3d_bub.timer 	#totalDerouted 	2395732
scalar Torus3d_bub.timer 	#totalOutFlanked 	1894535
scalar Torus3d_bub.timer 	#totalCQRed 	501197
scalar Torus3d_bub.timer 	#LB 	0.000786432
scalar Torus3d_bub.timer 	#ratio 	0.16030255695932
statistic Torus3d_bub.timer 	"Hop Times"
field count 6193152
field mean 0.00015822415556838
field stddev 0.00011166438901873
field sum 979.9062455066
field sqrsum 0.23226684029488
field min 3.74222222e-07
field max 0.000899945932004
bin	-INF	0
bin	0	0
bin	7.12e-08	0
bin	1.424e-07	0
bin	2.136e-07	0
bin	2.848e-07	0
bin	3.56e-07	241
bin	4.272e-07	904
bin	4.984e-07	1633
bin	5.696e-07	2515
bin	6.408e-07	3322
bin	7.12e-07	4079
bin	7.832e-07	4918
bin	8.544e-07	5662
bin	9.256e-07	6343
bin	9.968e-07	6998
bin	1.068e-06	7514
bin	1.1392e-06	8239
bin	1.2104e-06	8839
bin	1.2816e-06	9743
bin	1.3528e-06	10672
bin	1.424e-06	11684
bin	1.4952e-06	12575
bin	1.5664e-06	13529
bin	1.6376e-06	14171
bin	1.7088e-06	14464
bin	1.78e-06	14651
bin	1.8512e-06	14613
bin	1.9224e-06	14673
bin	1.9936e-06	14297
bin	2.0648e-06	13918
bin	2.136e-06	13614
bin	2.2072e-06	12979
bin	2.2784e-06	12611
bin	2.3496e-06	12228
bin	2.4208e-06	11611
bin	2.492e-06	11218
bin	2.5632e-06	10556
bin	2.6344e-06	10021
bin	2.7056e-06	9721
bin	2.7768e-06	9236
bin	2.848e-06	8774
bin	2.9192e-06	8510
bin	2.9904e-06	8290
bin	3.0616e-06	7843
bin	3.1328e-06	7337
bin	3.204e-06	7097
bin	3.2752e-06	6761
bin	3.3464e-06	6406
bin	3.4176e-06	6054
bin	3.4888e-06	5863
bin	3.56e-06	5571
bin	3.6312e-06	5361
bin	3.7024e-06	5131
bin	3.7736e-06	5049
bin	3.8448e-06	4740
bin	3.916e-06	4597
bin	3.9872e-06	4518
bin	4.0584e-06	4290
bin	4.1296e-06	4264
bin	4.2008e-06	3953
bin	4.272e-06	3911
bin	4.3432e-06	3814
bin	4.4144e-06	3762
bin	4.4856e-06	3646
bin	4.5568e-06	3650
bin	4.628e-06	3481
bin	4.6992e-06	3420
bin	4.7704e-06	3362
bin	4.8416e-06	3329
bin	4.9128e-06	3196
bin	4.984e-06	3137
bin	5.0552e-06	3138
bin	5.1264e-06	3181
bin	5.1976e-06	3077
bin	5.2688e-06	2924
bin	5.34e-06	2884
bin	5.4112e-06	2809
bin	5.4824e-06	2805
bin	5.5536e-06	2723
bin	5.6248e-06	2631
bin	5.696e-06	2545
bin	5.7672e-06	2456
bin	5.8384e-06	2428
bin	5.9096e-06	2324
bin	5.9808e-06	2317
bin	6.052e-06	2189
bin	6.1232e-06	2206
bin	6.1944e-06	2105
bin	6.2656e-06	2056
bin	6.3368e-06	2144
bin	6.408e-06	2113
bin	6.4792e-06	1996
bin	6.5504e-06	1989
bin	6.6216e-06	1993
bin	6.6928e-06	1931
bin	6.764e-06	1931
bin	6.8352e-06	1826
bin	6.9064e-06	1840
bin	6.9776e-06	1809
bin	7.0488e-06	1801
bin	7.12e-06	1742
bin	7.1912e-06	1745
bin	7.2624e-06	1698
bin	7.3336e-06	1765
bin	7.4048e-06	1728
bin	7.476e-06	1714
bin	7.5472e-06	1758
bin	7.6184e-06	1652
bin	7.6896e-06	1683
bin	7.7608e-06	1686
bin	7.832e-06	1652
bin	7.9032e-06	1644
bin	7.9744e-06	1673
bin	8.0456e-06	1693
bin	8.1168e-06	1661
bin	8.188e-06	1554
bin	8.2592e-06	1646
bin	8.3304e-06	1579
bin	8.4016e-06	1525
bin	8.4728e-06	1516
bin	8.544e-06	1551
bin	8.6152e-06	1508
bin	8.6864e-06	1460
bin	8.7576e-06	1566
bin	8.8288e-06	1411
bin	8.9e-06	1496
bin	8.9712e-06	1525
bin	9.0424e-06	1519
bin	9.1136e-06	1564
bin	9.1848e-06	1582
bin	9.256e-06	1552
bin	9.3272e-06	1527
bin	9.3984e-06	1525
bin	9.4696e-06	1538
bin	9.5408e-06	1496
bin	9.612e-06	1501
bin	9.6832e-06	1559
bin	9.7544e-06	1473
bin	9.8256e-06	1463
bin	9.8968e-06	1373
bin	9.968e-06	1393
bin	1.00392e-05	1361
bin	1.01104e-05	1355
bin	1.01816e-05	1340
bin	1.02528e-05	1312
bin	1.0324e-05	1348
bin	1.03952e-05	1265
bin	1.04664e-05	1276
bin	1.05376e-05	1319
bin	1.06088e-05	1350
bin	1.068e-05	1241
bin	1.07512e-05	1254
bin	1.08224e-05	1182
bin	1.08936e-05	1213
bin	1.09648e-05	1215
bin	1.1036e-05	1239
bin	1.11072e-05	1270
bin	1.11784e-05	1202
bin	1.12496e-05	1171
bin	1.13208e-05	1194
bin	1.1392e-05	1259
bin	1.14632e-05	1220
bin	1.15344e-05	1177
bin	1.16056e-05	1139
bin	1.16768e-05	1129
bin	1.1748e-05	1166
bin	1.18192e-05	1156
bin	1.18904e-05	1107
bin	1.19616e-05	1151
bin	1.20328e-05	1077
bin	1.2104e-05	1101
bin	1.21752e-05	1128
bin	1.22464e-05	1146
bin	1.23176e-05	1097
bin	1.23888e-05	1092
bin	1.246e-05	1121
bin	1.25312e-05	1115
bin	1.26024e-05	1137
bin	1.26736e-05	1074
bin	1.27448e-05	1087
bin	1.2816e-05	1060
bin	1.28872e-05	1065
bin	1.29584e-05	1061
bin	1.30296e-05	1101
bin	1.31008e-05	1075
bin	1.3172e-05	1062
bin	1.32432e-05	1067
bin	1.33144e-05	1098
bin	1.33856e-05	1072
bin	1.34568e-05	1083
bin	1.3528e-05	1111
bin	1.35992e-05	1063
bin	1.36704e-05	1089
bin	1.37416e-05	1121
bin	1.38128e-05	1064
bin	1.3884e-05	1013
bin	1.39552e-05	1055
bin	1.40264e-05	1047
bin	1.40976e-05	1071
bin	1.41688e-05	1094
bin	1.424e-05	1065
bin	1.43112e-05	1062
bin	1.43824e-05	1054
bin	1.44536e-05	1064
bin	1.45248e-05	1075
bin	1.4596e-05	1089
bin	1.46672e-05	1160
bin	1.47384e-05	1117
bin	1.48096e-05	1130
bin	1.48808e-05	1098
bin	1.4952e-05	1092
bin	1.50232e-05	1092
bin	1.50944e-05	1134
bin	1.51656e-05	1133
bin	1.52368e-05	1073
bin	1.5308e-05	1116
bin	1.53792e-05	1095
bin	1.54504e-05	1084
bin	1.55216e-05	1091
bin	1.55928e-05	1107
bin	1.5664e-05	1102
bin	1.57352e-05	1113
bin	1.58064e-05	1035
bin	1.58776e-05	1036
bin	1.59488e-05	955
bin	1.602e-05	979
bin	1.60912e-05	1004
bin	1.61624e-05	974
bin	1.62336e-05	1016
bin	1.63048e-05	975
bin	1.6376e-05	991
bin	1.64472e-05	999
bin	1.65184e-05	1036
bin	1.65896e-05	1021
bin	1.66608e-05	1006
bin	1.6732e-05	971
bin	1.68032e-05	958
bin	1.68744e-05	960
bin	1.69456e-05	967
bin	1.70168e-05	966
bin	1.7088e-05	970
bin	1.71592e-05	966
bin	1.72304e-05	981
bin	1.73016e-05	948
bin	1.73728e-05	950
bin	1.7444e-05	947
bin	1.75152e-05	980
bin	1.75864e-05	990
bin	1.76576e-05	960
bin	1.77288e-05	940
bin	1.78e-05	899
bin	1.78712e-05	918
bin	1.79424e-05	909
bin	1.80136e-05	905
bin	1.80848e-05	907
bin	1.8156e-05	890
bin	1.82272e-05	929
bin	1.82984e-05	937
bin	1.83696e-05	910
bin	1.84408e-05	937
bin	1.8512e-05	945
bin	1.85832e-05	918
bin	1.86544e-05	948
bin	1.87256e-05	925
bin	1.87968e-05	904
bin	1.8868e-05	984
bin	1.89392e-05	1000
bin	1.90104e-05	953
bin	1.90816e-05	1017
bin	1.91528e-05	983
bin	1.9224e-05	973
bin	1.92952e-05	971
bin	1.93664e-05	974
bin	1.94376e-05	904
bin	1.95088e-05	941
bin	1.958e-05	925
bin	1.96512e-05	912
bin	1.97224e-05	940
bin	1.97936e-05	927
bin	1.98648e-05	894
bin	1.9936e-05	889
bin	2.00072e-05	904
bin	2.00784e-05	906
bin	2.01496e-05	900
bin	2.02208e-05	888
bin	2.0292e-05	883
bin	2.03632e-05	900
bin	2.04344e-05	937
bin	2.05056e-05	893
bin	2.05768e-05	878
bin	2.0648e-05	932
bin	2.07192e-05	901
bin	2.07904e-05	879
bin	2.08616e-05	897
bin	2.09328e-05	886
bin	2.1004e-05	892
bin	2.10752e-05	897
bin	2.11464e-05	876
bin	2.12176e-05	879
bin	2.12888e-05	839
bin	2.136e-05	866
bin	2.14312e-05	808
bin	2.15024e-05	823
bin	2.15736e-05	807
bin	2.16448e-05	853
bin	2.1716e-05	835
bin	2.17872e-05	802
bin	2.18584e-05	844
bin	2.19296e-05	837
bin	2.20008e-05	843
bin	2.2072e-05	826
bin	2.21432e-05	867
bin	2.22144e-05	851
bin	2.22856e-05	887
bin	2.23568e-05	850
bin	2.2428e-05	862
bin	2.24992e-05	895
bin	2.25704e-05	880
bin	2.26416e-05	912
bin	2.27128e-05	924
bin	2.2784e-05	880
bin	2.28552e-05	907
bin	2.29264e-05	874
bin	2.29976e-05	951
bin	2.30688e-05	966
bin	2.314e-05	891
bin	2.32112e-05	882
bin	2.32824e-05	880
bin	2.33536e-05	864
bin	2.34248e-05	864
bin	2.3496e-05	872
bin	2.35672e-05	879
bin	2.36384e-05	881
bin	2.37096e-05	830
bin	2.37808e-05	810
bin	2.3852e-05	869
bin	2.39232e-05	826
bin	2.39944e-05	871
bin	2.40656e-05	859
bin	2.41368e-05	868
bin	2.4208e-05	873
bin	2.42792e-05	910
bin	2.43504e-05	909
bin	2.44216e-05	946
bin	2.44928e-05	956
bin	2.4564e-05	910
bin	2.46352e-05	943
bin	2.47064e-05	883
bin	2.47776e-05	913
bin	2.48488e-05	942
bin	2.492e-05	943
bin	2.49912e-05	934
bin	2.50624e-05	902
bin	2.51336e-05	897
bin	2.52048e-05	867
bin	2.5276e-05	888
bin	2.53472e-05	899
bin	2.54184e-05	882
bin	2.54896e-05	860
bin	2.55608e-05	884
bin	2.5632e-05	848
bin	2.57032e-05	808
bin	2.57744e-05	782
bin	2.58456e-05	858
bin	2.59168e-05	813
bin	2.5988e-05	874
bin	2.60592e-05	871
bin	2.61304e-05	853
bin	2.62016e-05	844
bin	2.62728e-05	875
bin	2.6344e-05	870
bin	2.64152e-05	877
bin	2.64864e-05	834
bin	2.65576e-05	875
bin	2.66288e-05	882
bin	2.67e-05	853
bin	2.67712e-05	801
bin	2.68424e-05	817
bin	2.69136e-05	896
bin	2.69848e-05	859
bin	2.7056e-05	857
bin	2.71272e-05	783
bin	2.71984e-05	845
bin	2.72696e-05	809
bin	2.73408e-05	783
bin	2.7412e-05	845
bin	2.74832e-05	838
bin	2.75544e-05	780
bin	2.76256e-05	843
bin	2.76968e-05	819
bin	2.7768e-05	817
bin	2.78392e-05	857
bin	2.79104e-05	820
bin	2.79816e-05	861
bin	2.80528e-05	836
bin	2.8124e-05	858
bin	2.81952e-05	840
bin	2.82664e-05	800
bin	2.83376e-05	846
bin	2.84088e-05	840
bin	2.848e-05	856
bin	2.85512e-05	829
bin	2.86224e-05	899
bin	2.86936e-05	878
bin	2.87648e-05	856
bin	2.8836e-05	847
bin	2.89072e-05	814
bin	2.89784e-05	878
bin	2.90496e-05	857
bin	2.91208e-05	814
bin	2.9192e-05	842
bin	2.92632e-05	879
bin	2.93344e-05	846
bin	2.94056e-05	878
bin	2.94768e-05	824
bin	2.9548e-05	848
bin	2.96192e-05	852
bin	2.96904e-05	873
bin	2.97616e-05	827
bin	2.98328e-05	811
bin	2.9904e-05	799
bin	2.99752e-05	856
bin	3.00464e-05	824
bin	3.01176e-05	795
bin	3.01888e-05	861
bin	3.026e-05	816
bin	3.03312e-05	830
bin	3.04024e-05	795
bin	3.04736e-05	827
bin	3.05448e-05	769
bin	3.0616e-05	789
bin	3.06872e-05	772
bin	3.07584e-05	755
bin	3.08296e-05	780
bin	3.09008e-05	778
bin	3.0972e-05	811
bin	3.10432e-05	785
bin	3.11144e-05	753
bin	3.11856e-05	781
bin	3.12568e-05	845
bin	3.1328e-05	847
bin	3.13992e-05	813
bin	3.14704e-05	804
bin	3.15416e-05	845
bin	3.16128e-05	789
bin	3.1684e-05	833
bin	3.17552e-05	803
bin	3.18264e-05	798
bin	3.18976e-05	758
bin	3.19688e-05	789
bin	3.204e-05	794
bin	3.21112e-05	801
bin	3.21824e-05	739
bin	3.22536e-05	813
bin	3.23248e-05	800
bin	3.2396e-05	794
bin	3.24672e-05	785
bin	3.25384e-05	804
bin	3.26096e-05	813
bin	3.26808e-05	794
bin	3.2752e-05	768
bin	3.28232e-05	761
bin	3.28944e-05	786
bin	3.29656e-05	758
bin	3.30368e-05	766
bin	3.3108e-05	725
bin	3.31792e-05	718
bin	3.32504e-05	703
bin	3.33216e-05	754
bin	3.33928e-05	739
bin	3.3464e-05	746
bin	3.35352e-05	801
bin	3.36064e-05	787
bin	3.36776e-05	772
bin	3.37488e-05	831
bin	3.382e-05	823
bin	3.38912e-05	804
bin	3.39624e-05	792
bin	3.40336e-05	773
bin	3.41048e-05	811
bin	3.4176e-05	761
bin	3.42472e-05	774
bin	3.43184e-05	782
bin	3.43896e-05	752
bin	3.44608e-05	774
bin	3.4532e-05	769
bin	3.46032e-05	816
bin	3.46744e-05	837
bin	3.47456e-05	798
bin	3.48168e-05	849
bin	3.4888e-05	786
bin	3.49592e-05	839
bin	3.50304e-05	747
bin	3.51016e-05	786
bin	3.51728e-05	799
bin	3.5244e-05	817
bin	3.53152e-05	815
bin	3.53864e-05	798
bin	3.54576e-05	780
bin	3.55288e-05	799
bin	3.56e-05	5234511
statistic Torus3d_bub.timer 	"Life Times"
field count 6291456
field mean 0.0020351940629671
field stddev 0.0012532724915813
field sum 12804.333898619
field sqrsum 35.941241978478
field min 1.64e-07
field max 0.004850091992854
bin	-INF	0
bin	0	6518
bin	8.544e-07	8107
bin	1.7088e-06	8625
bin	2.5632e-06	9097
bin	3.4176e-06	9761
bin	4.272e-06	10621
bin	5.1264e-06	11642
bin	5.9808e-06	12457
bin	6.8352e-06	13449
bin	7.6896e-06	14449
bin	8.544e-06	15413
bin	9.3984e-06	16232
bin	1.02528e-05	10579
bin	1.11072e-05	9696
bin	1.19616e-05	10177
bin	1.2816e-05	10561
bin	1.36704e-05	11271
bin	1.45248e-05	11879
bin	1.53792e-05	12029
bin	1.62336e-05	12567
bin	1.7088e-05	12503
bin	1.79424e-05	12820
bin	1.87968e-05	12931
bin	1.96512e-05	13011
bin	2.05056e-05	13361
bin	2.136e-05	13881
bin	2.22144e-05	13987
bin	2.30688e-05	14121
bin	2.39232e-05	14800
bin	2.47776e-05	15207
bin	2.5632e-05	15354
bin	2.64864e-05	15017
bin	2.73408e-05	14547
bin	2.81952e-05	13919
bin	2.90496e-05	12979
bin	2.9904e-05	12446
bin	3.07584e-05	11564
bin	3.16128e-05	10317
bin	3.24672e-05	9497
bin	3.33216e-05	8543
bin	3.4176e-05	7636
bin	3.50304e-05	6932
bin	3.58848e-05	6205
bin	3.67392e-05	5664
bin	3.75936e-05	5395
bin	3.8448e-05	5012
bin	3.93024e-05	4812
bin	4.01568e-05	4383
bin	4.10112e-05	4351
bin	4.18656e-05	4222
bin	4.272e-05	4286
bin	4.35744e-05	4259
bin	4.44288e-05	4154
bin	4.52832e-05	4293
bin	4.61376e-05	4216
bin	4.6992e-05	4204
bin	4.78464e-05	4258
bin	4.87008e-05	4239
bin	4.95552e-05	4077
bin	5.04096e-05	4179
bin	5.1264e-05	4128
bin	5.21184e-05	4037
bin	5.29728e-05	3890
bin	5.38272e-05	3686
bin	5.46816e-05	3580
bin	5.5536e-05	3384
bin	5.63904e-05	3251
bin	5.72448e-05	3130
bin	5.80992e-05	3056
bin	5.89536e-05	2844
bin	5.9808e-05	2608
bin	6.06624e-05	2611
bin	6.15168e-05	2503
bin	6.23712e-05	2400
bin	6.32256e-05	2424
bin	6.408e-05	2381
bin	6.49344e-05	2377
bin	6.57888e-05	2424
bin	6.66432e-05	2325
bin	6.74976e-05	2382
bin	6.8352e-05	2351
bin	6.92064e-05	2376
bin	7.00608e-05	2418
bin	7.09152e-05	2396
bin	7.17696e-05	2428
bin	7.2624e-05	2490
bin	7.34784e-05	2558
bin	7.43328e-05	2482
bin	7.51872e-05	2428
bin	7.60416e-05	2389
bin	7.6896e-05	2424
bin	7.77504e-05	2409
bin	7.86048e-05	2345
bin	7.94592e-05	2165
bin	8.03136e-05	2186
bin	8.1168e-05	2134
bin	8.20224e-05	1997
bin	8.28768e-05	2041
bin	8.37312e-05	1859
bin	8.45856e-05	1855
bin	8.544e-05	1767
bin	8.62944e-05	1765
bin	8.71488e-05	1714
bin	8.80032e-05	1676
bin	8.88576e-05	1664
bin	8.9712e-05	1638
bin	9.05664e-05	1675
bin	9.14208e-05	1730
bin	9.22752e-05	1783
bin	9.31296e-05	1724
bin	9.3984e-05	1637
bin	9.48384e-05	1718
bin	9.56928e-05	1800
bin	9.65472e-05	1811
bin	9.74016e-05	1887
bin	9.8256e-05	1860
bin	9.91104e-05	1931
bin	9.99648e-05	1914
bin	0.0001008192	1941
bin	0.0001016736	1907
bin	0.000102528	1789
bin	0.0001033824	1735
bin	0.0001042368	1721
bin	0.0001050912	1678
bin	0.0001059456	1631
bin	0.0001068	1540
bin	0.0001076544	1462
bin	0.0001085088	1439
bin	0.0001093632	1427
bin	0.0001102176	1452
bin	0.000111072	1523
bin	0.0001119264	1404
bin	0.0001127808	1424
bin	0.0001136352	1425
bin	0.0001144896	1404
bin	0.000115344	1363
bin	0.0001161984	1397
bin	0.0001170528	1316
bin	0.0001179072	1385
bin	0.0001187616	1404
bin	0.000119616	1375
bin	0.0001204704	1416
bin	0.0001213248	1386
bin	0.0001221792	1434
bin	0.0001230336	1447
bin	0.000123888	1419
bin	0.0001247424	1409
bin	0.0001255968	1427
bin	0.0001264512	1409
bin	0.0001273056	1432
bin	0.00012816	1420
bin	0.0001290144	1419
bin	0.0001298688	1300
bin	0.0001307232	1285
bin	0.0001315776	1316
bin	0.000132432	1275
bin	0.0001332864	1282
bin	0.0001341408	1236
bin	0.0001349952	1261
bin	0.0001358496	1209
bin	0.000136704	1167
bin	0.0001375584	1175
bin	0.0001384128	1163
bin	0.0001392672	1152
bin	0.0001401216	1224
bin	0.000140976	1136
bin	0.0001418304	1151
bin	0.0001426848	1143
bin	0.0001435392	1173
bin	0.0001443936	1218
bin	0.000145248	1243
bin	0.0001461024	1269
bin	0.0001469568	1234
bin	0.0001478112	1228
bin	0.0001486656	1318
bin	0.00014952	1297
bin	0.0001503744	1295
bin	0.0001512288	1293
bin	0.0001520832	1261
bin	0.0001529376	1200
bin	0.000153792	1171
bin	0.0001546464	1125
bin	0.0001555008	1116
bin	0.0001563552	1099
bin	0.0001572096	1099
bin	0.000158064	1108
bin	0.0001589184	1039
bin	0.0001597728	1025
bin	0.0001606272	1044
bin	0.0001614816	1056
bin	0.000162336	1066
bin	0.0001631904	1005
bin	0.0001640448	1062
bin	0.0001648992	1103
bin	0.0001657536	1090
bin	0.000166608	1131
bin	0.0001674624	1045
bin	0.0001683168	1086
bin	0.0001691712	1110
bin	0.0001700256	1135
bin	0.00017088	1084
bin	0.0001717344	1141
bin	0.0001725888	1108
bin	0.0001734432	1167
bin	0.0001742976	1113
bin	0.000175152	1154
bin	0.0001760064	1119
bin	0.0001768608	1096
bin	0.0001777152	1083
bin	0.0001785696	1030
bin	0.000179424	1061
bin	0.0001802784	1016
bin	0.0001811328	1015
bin	0.0001819872	1043
bin	0.0001828416	984
bin	0.000183696	1035
bin	0.0001845504	1060
bin	0.0001854048	970
bin	0.0001862592	967
bin	0.0001871136	924
bin	0.000187968	960
bin	0.0001888224	981
bin	0.0001896768	993
bin	0.0001905312	992
bin	0.0001913856	997
bin	0.00019224	979
bin	0.0001930944	969
bin	0.0001939488	969
bin	0.0001948032	977
bin	0.0001956576	1038
bin	0.000196512	1066
bin	0.0001973664	1039
bin	0.0001982208	1068
bin	0.0001990752	1054
bin	0.0001999296	1011
bin	0.000200784	1005
bin	0.0002016384	969
bin	0.0002024928	949
bin	0.0002033472	946
bin	0.0002042016	973
bin	0.000205056	979
bin	0.0002059104	944
bin	0.0002067648	949
bin	0.0002076192	938
bin	0.0002084736	880
bin	0.000209328	916
bin	0.0002101824	838
bin	0.0002110368	848
bin	0.0002118912	861
bin	0.0002127456	848
bin	0.0002136	886
bin	0.0002144544	896
bin	0.0002153088	864
bin	0.0002161632	911
bin	0.0002170176	896
bin	0.000217872	887
bin	0.0002187264	952
bin	0.0002195808	939
bin	0.0002204352	938
bin	0.0002212896	935
bin	0.000222144	966
bin	0.0002229984	889
bin	0.0002238528	957
bin	0.0002247072	976
bin	0.0002255616	904
bin	0.000226416	953
bin	0.0002272704	932
bin	0.0002281248	931
bin	0.0002289792	873
bin	0.0002298336	938
bin	0.000230688	947
bin	0.0002315424	873
bin	0.0002323968	870
bin	0.0002332512	883
bin	0.0002341056	878
bin	0.00023496	850
bin	0.0002358144	857
bin	0.0002366688	861
bin	0.0002375232	831
bin	0.0002383776	867
bin	0.000239232	818
bin	0.0002400864	847
bin	0.0002409408	843
bin	0.0002417952	825
bin	0.0002426496	835
bin	0.000243504	826
bin	0.0002443584	848
bin	0.0002452128	809
bin	0.0002460672	825
bin	0.0002469216	837
bin	0.000247776	840
bin	0.0002486304	866
bin	0.0002494848	897
bin	0.0002503392	864
bin	0.0002511936	866
bin	0.000252048	844
bin	0.0002529024	809
bin	0.0002537568	833
bin	0.0002546112	826
bin	0.0002554656	840
bin	0.00025632	762
bin	0.0002571744	791
bin	0.0002580288	809
bin	0.0002588832	743
bin	0.0002597376	771
bin	0.000260592	760
bin	0.0002614464	743
bin	0.0002623008	768
bin	0.0002631552	773
bin	0.0002640096	741
bin	0.000264864	768
bin	0.0002657184	729
bin	0.0002665728	724
bin	0.0002674272	791
bin	0.0002682816	743
bin	0.000269136	797
bin	0.0002699904	776
bin	0.0002708448	761
bin	0.0002716992	793
bin	0.0002725536	786
bin	0.000273408	832
bin	0.0002742624	867
bin	0.0002751168	835
bin	0.0002759712	787
bin	0.0002768256	759
bin	0.00027768	777
bin	0.0002785344	773
bin	0.0002793888	729
bin	0.0002802432	717
bin	0.0002810976	723
bin	0.000281952	710
bin	0.0002828064	689
bin	0.0002836608	694
bin	0.0002845152	686
bin	0.0002853696	683
bin	0.000286224	656
bin	0.0002870784	669
bin	0.0002879328	698
bin	0.0002887872	698
bin	0.0002896416	737
bin	0.000290496	732
bin	0.0002913504	713
bin	0.0002922048	737
bin	0.0002930592	753
bin	0.0002939136	756
bin	0.000294768	811
bin	0.0002956224	823
bin	0.0002964768	806
bin	0.0002973312	825
bin	0.0002981856	813
bin	0.00029904	831
bin	0.0002998944	863
bin	0.0003007488	818
bin	0.0003016032	826
bin	0.0003024576	782
bin	0.000303312	764
bin	0.0003041664	795
bin	0.0003050208	803
bin	0.0003058752	758
bin	0.0003067296	789
bin	0.000307584	713
bin	0.0003084384	746
bin	0.0003092928	776
bin	0.0003101472	804
bin	0.0003110016	766
bin	0.000311856	769
bin	0.0003127104	726
bin	0.0003135648	733
bin	0.0003144192	733
bin	0.0003152736	792
bin	0.000316128	815
bin	0.0003169824	795
bin	0.0003178368	828
bin	0.0003186912	813
bin	0.0003195456	788
bin	0.0003204	839
bin	0.0003212544	798
bin	0.0003221088	782
bin	0.0003229632	821
bin	0.0003238176	818
bin	0.000324672	783
bin	0.0003255264	748
bin	0.0003263808	747
bin	0.0003272352	730
bin	0.0003280896	723
bin	0.000328944	757
bin	0.0003297984	784
bin	0.0003306528	717
bin	0.0003315072	697
bin	0.0003323616	736
bin	0.000333216	754
bin	0.0003340704	750
bin	0.0003349248	704
bin	0.0003357792	776
bin	0.0003366336	743
bin	0.000337488	734
bin	0.0003383424	771
bin	0.0003391968	699
bin	0.0003400512	756
bin	0.0003409056	708
bin	0.00034176	771
bin	0.0003426144	745
bin	0.0003434688	786
bin	0.0003443232	753
bin	0.0003451776	780
bin	0.000346032	829
bin	0.0003468864	817
bin	0.0003477408	823
bin	0.0003485952	738
bin	0.0003494496	762
bin	0.000350304	780
bin	0.0003511584	775
bin	0.0003520128	813
bin	0.0003528672	765
bin	0.0003537216	752
bin	0.000354576	759
bin	0.0003554304	757
bin	0.0003562848	769
bin	0.0003571392	747
bin	0.0003579936	759
bin	0.000358848	724
bin	0.0003597024	703
bin	0.0003605568	695
bin	0.0003614112	757
bin	0.0003622656	773
bin	0.00036312	768
bin	0.0003639744	790
bin	0.0003648288	787
bin	0.0003656832	763
bin	0.0003665376	777
bin	0.000367392	775
bin	0.0003682464	769
bin	0.0003691008	765
bin	0.0003699552	796
bin	0.0003708096	790
bin	0.000371664	785
bin	0.0003725184	814
bin	0.0003733728	830
bin	0.0003742272	819
bin	0.0003750816	814
bin	0.000375936	793
bin	0.0003767904	796
bin	0.0003776448	750
bin	0.0003784992	713
bin	0.0003793536	696
bin	0.000380208	669
bin	0.0003810624	650
bin	0.0003819168	650
bin	0.0003827712	691
bin	0.0003836256	734
bin	0.00038448	703
bin	0.0003853344	675
bin	0.0003861888	675
bin	0.0003870432	677
bin	0.0003878976	703
bin	0.000388752	728
bin	0.0003896064	742
bin	0.0003904608	732
bin	0.0003913152	745
bin	0.0003921696	728
bin	0.000393024	714
bin	0.0003938784	656
bin	0.0003947328	709
bin	0.0003955872	731
bin	0.0003964416	724
bin	0.000397296	712
bin	0.0003981504	654
bin	0.0003990048	650
bin	0.0003998592	657
bin	0.0004007136	664
bin	0.000401568	647
bin	0.0004024224	682
bin	0.0004032768	704
bin	0.0004041312	685
bin	0.0004049856	706
bin	0.00040584	745
bin	0.0004066944	694
bin	0.0004075488	714
bin	0.0004084032	672
bin	0.0004092576	702
bin	0.000410112	684
bin	0.0004109664	647
bin	0.0004118208	652
bin	0.0004126752	664
bin	0.0004135296	637
bin	0.000414384	692
bin	0.0004152384	700
bin	0.0004160928	724
bin	0.0004169472	746
bin	0.0004178016	762
bin	0.000418656	771
bin	0.0004195104	748
bin	0.0004203648	728
bin	0.0004212192	730
bin	0.0004220736	732
bin	0.000422928	715
bin	0.0004237824	728
bin	0.0004246368	736
bin	0.0004254912	753
bin	0.0004263456	692
bin	0.0004272	5221270
