version 2
run Transposition-73-20120710-18:40:24-28027
attr alg 1
attr buf 8
attr configname Transposition
attr datetime 20120710-18:40:24
attr delta 0.8
attr experiment Transposition
attr ext false
attr inifile altro.ini
attr iterationvars "$buf=8, $ext=false, $ofedge=2, $delta=0.8, $alg=1"
attr iterationvars2 "$buf=8, $ext=false, $ofedge=2, $delta=0.8, $alg=1, $repetition=0"
attr measurement "$buf=8, $ext=false, $ofedge=2, $delta=0.8, $alg=1"
attr network Torus3d_bub
attr ofedge 2
attr processid 28027
attr repetition 0
attr replication #0
attr resultdir altro-results
attr runnumber 73
attr seedset 73

scalar . 	alg 	1
scalar . 	buf 	8
scalar . 	delta 	0.8
scalar . 	ofedge 	2
scalar Torus3d_bub.timer 	#endTime 	0.004728842993119
scalar Torus3d_bub.timer 	#totalHops 	88471986
scalar Torus3d_bub.timer 	#totalPacks 	6291456
scalar Torus3d_bub.timer 	#totalDerouted 	1831649
scalar Torus3d_bub.timer 	#totalOutFlanked 	1831649
scalar Torus3d_bub.timer 	#totalCQRed 	0
scalar Torus3d_bub.timer 	#LB 	0.000786432
scalar Torus3d_bub.timer 	#ratio 	0.16630537345908
statistic Torus3d_bub.timer 	"Hop Times"
field count 6193152
field mean 0.00010974494868654
field stddev 7.5403997407141e-05
field sum 679.66714844794
field sqrsum 0.10980282405561
field min 3.78296296e-07
field max 0.000799583465474
bin	-INF	0
bin	0	0
bin	7.12e-08	0
bin	1.424e-07	0
bin	2.136e-07	0
bin	2.848e-07	0
bin	3.56e-07	245
bin	4.272e-07	1030
bin	4.984e-07	2079
bin	5.696e-07	3441
bin	6.408e-07	4744
bin	7.12e-07	5995
bin	7.832e-07	7496
bin	8.544e-07	8536
bin	9.256e-07	9336
bin	9.968e-07	10141
bin	1.068e-06	11308
bin	1.1392e-06	12090
bin	1.2104e-06	13133
bin	1.2816e-06	14410
bin	1.3528e-06	15905
bin	1.424e-06	17403
bin	1.4952e-06	19138
bin	1.5664e-06	20723
bin	1.6376e-06	21903
bin	1.7088e-06	22552
bin	1.78e-06	23126
bin	1.8512e-06	23141
bin	1.9224e-06	23345
bin	1.9936e-06	23252
bin	2.0648e-06	23312
bin	2.136e-06	22436
bin	2.2072e-06	22198
bin	2.2784e-06	21633
bin	2.3496e-06	20836
bin	2.4208e-06	20296
bin	2.492e-06	19429
bin	2.5632e-06	18549
bin	2.6344e-06	17822
bin	2.7056e-06	17153
bin	2.7768e-06	16287
bin	2.848e-06	15582
bin	2.9192e-06	14982
bin	2.9904e-06	14334
bin	3.0616e-06	13525
bin	3.1328e-06	13066
bin	3.204e-06	12285
bin	3.2752e-06	11673
bin	3.3464e-06	11272
bin	3.4176e-06	10808
bin	3.4888e-06	10396
bin	3.56e-06	9945
bin	3.6312e-06	9472
bin	3.7024e-06	9138
bin	3.7736e-06	8781
bin	3.8448e-06	8298
bin	3.916e-06	7933
bin	3.9872e-06	7555
bin	4.0584e-06	7328
bin	4.1296e-06	7053
bin	4.2008e-06	6698
bin	4.272e-06	6374
bin	4.3432e-06	6268
bin	4.4144e-06	6115
bin	4.4856e-06	5822
bin	4.5568e-06	5841
bin	4.628e-06	5386
bin	4.6992e-06	5407
bin	4.7704e-06	5333
bin	4.8416e-06	5207
bin	4.9128e-06	5011
bin	4.984e-06	5014
bin	5.0552e-06	4938
bin	5.1264e-06	5035
bin	5.1976e-06	4761
bin	5.2688e-06	4680
bin	5.34e-06	4651
bin	5.4112e-06	4576
bin	5.4824e-06	4496
bin	5.5536e-06	4229
bin	5.6248e-06	4201
bin	5.696e-06	4218
bin	5.7672e-06	4032
bin	5.8384e-06	3939
bin	5.9096e-06	3889
bin	5.9808e-06	3887
bin	6.052e-06	3814
bin	6.1232e-06	3750
bin	6.1944e-06	3678
bin	6.2656e-06	3750
bin	6.3368e-06	3589
bin	6.408e-06	3604
bin	6.4792e-06	3613
bin	6.5504e-06	3383
bin	6.6216e-06	3257
bin	6.6928e-06	3157
bin	6.764e-06	3230
bin	6.8352e-06	3102
bin	6.9064e-06	3068
bin	6.9776e-06	3037
bin	7.0488e-06	2924
bin	7.12e-06	2889
bin	7.1912e-06	2813
bin	7.2624e-06	2854
bin	7.3336e-06	2795
bin	7.4048e-06	2692
bin	7.476e-06	2716
bin	7.5472e-06	2566
bin	7.6184e-06	2543
bin	7.6896e-06	2542
bin	7.7608e-06	2578
bin	7.832e-06	2486
bin	7.9032e-06	2435
bin	7.9744e-06	2456
bin	8.0456e-06	2420
bin	8.1168e-06	2478
bin	8.188e-06	2361
bin	8.2592e-06	2328
bin	8.3304e-06	2360
bin	8.4016e-06	2251
bin	8.4728e-06	2278
bin	8.544e-06	2193
bin	8.6152e-06	2235
bin	8.6864e-06	2261
bin	8.7576e-06	2309
bin	8.8288e-06	2268
bin	8.9e-06	2198
bin	8.9712e-06	2118
bin	9.0424e-06	2184
bin	9.1136e-06	2190
bin	9.1848e-06	2144
bin	9.256e-06	2143
bin	9.3272e-06	2117
bin	9.3984e-06	2147
bin	9.4696e-06	2117
bin	9.5408e-06	2016
bin	9.612e-06	2014
bin	9.6832e-06	2107
bin	9.7544e-06	2049
bin	9.8256e-06	2060
bin	9.8968e-06	1978
bin	9.968e-06	1984
bin	1.00392e-05	1954
bin	1.01104e-05	1977
bin	1.01816e-05	1951
bin	1.02528e-05	1952
bin	1.0324e-05	1899
bin	1.03952e-05	1911
bin	1.04664e-05	1834
bin	1.05376e-05	1851
bin	1.06088e-05	1917
bin	1.068e-05	1866
bin	1.07512e-05	1885
bin	1.08224e-05	1950
bin	1.08936e-05	1830
bin	1.09648e-05	1848
bin	1.1036e-05	1827
bin	1.11072e-05	1813
bin	1.11784e-05	1808
bin	1.12496e-05	1876
bin	1.13208e-05	1880
bin	1.1392e-05	1843
bin	1.14632e-05	1791
bin	1.15344e-05	1884
bin	1.16056e-05	1812
bin	1.16768e-05	1897
bin	1.1748e-05	1865
bin	1.18192e-05	1915
bin	1.18904e-05	1934
bin	1.19616e-05	1796
bin	1.20328e-05	1835
bin	1.2104e-05	1780
bin	1.21752e-05	1843
bin	1.22464e-05	1801
bin	1.23176e-05	1806
bin	1.23888e-05	1868
bin	1.246e-05	1813
bin	1.25312e-05	1846
bin	1.26024e-05	1823
bin	1.26736e-05	1812
bin	1.27448e-05	1795
bin	1.2816e-05	1821
bin	1.28872e-05	1812
bin	1.29584e-05	1778
bin	1.30296e-05	1773
bin	1.31008e-05	1770
bin	1.3172e-05	1791
bin	1.32432e-05	1781
bin	1.33144e-05	1662
bin	1.33856e-05	1671
bin	1.34568e-05	1687
bin	1.3528e-05	1700
bin	1.35992e-05	1647
bin	1.36704e-05	1681
bin	1.37416e-05	1652
bin	1.38128e-05	1527
bin	1.3884e-05	1665
bin	1.39552e-05	1619
bin	1.40264e-05	1593
bin	1.40976e-05	1643
bin	1.41688e-05	1601
bin	1.424e-05	1563
bin	1.43112e-05	1535
bin	1.43824e-05	1550
bin	1.44536e-05	1539
bin	1.45248e-05	1579
bin	1.4596e-05	1594
bin	1.46672e-05	1573
bin	1.47384e-05	1536
bin	1.48096e-05	1550
bin	1.48808e-05	1540
bin	1.4952e-05	1533
bin	1.50232e-05	1516
bin	1.50944e-05	1499
bin	1.51656e-05	1457
bin	1.52368e-05	1496
bin	1.5308e-05	1415
bin	1.53792e-05	1405
bin	1.54504e-05	1524
bin	1.55216e-05	1462
bin	1.55928e-05	1517
bin	1.5664e-05	1534
bin	1.57352e-05	1526
bin	1.58064e-05	1438
bin	1.58776e-05	1512
bin	1.59488e-05	1468
bin	1.602e-05	1431
bin	1.60912e-05	1442
bin	1.61624e-05	1392
bin	1.62336e-05	1438
bin	1.63048e-05	1464
bin	1.6376e-05	1435
bin	1.64472e-05	1479
bin	1.65184e-05	1444
bin	1.65896e-05	1400
bin	1.66608e-05	1456
bin	1.6732e-05	1435
bin	1.68032e-05	1375
bin	1.68744e-05	1389
bin	1.69456e-05	1412
bin	1.70168e-05	1376
bin	1.7088e-05	1469
bin	1.71592e-05	1437
bin	1.72304e-05	1494
bin	1.73016e-05	1469
bin	1.73728e-05	1494
bin	1.7444e-05	1421
bin	1.75152e-05	1425
bin	1.75864e-05	1408
bin	1.76576e-05	1432
bin	1.77288e-05	1403
bin	1.78e-05	1441
bin	1.78712e-05	1427
bin	1.79424e-05	1369
bin	1.80136e-05	1437
bin	1.80848e-05	1434
bin	1.8156e-05	1477
bin	1.82272e-05	1356
bin	1.82984e-05	1426
bin	1.83696e-05	1396
bin	1.84408e-05	1427
bin	1.8512e-05	1417
bin	1.85832e-05	1428
bin	1.86544e-05	1380
bin	1.87256e-05	1465
bin	1.87968e-05	1394
bin	1.8868e-05	1378
bin	1.89392e-05	1351
bin	1.90104e-05	1365
bin	1.90816e-05	1294
bin	1.91528e-05	1319
bin	1.9224e-05	1282
bin	1.92952e-05	1322
bin	1.93664e-05	1269
bin	1.94376e-05	1300
bin	1.95088e-05	1260
bin	1.958e-05	1264
bin	1.96512e-05	1252
bin	1.97224e-05	1259
bin	1.97936e-05	1246
bin	1.98648e-05	1303
bin	1.9936e-05	1251
bin	2.00072e-05	1284
bin	2.00784e-05	1247
bin	2.01496e-05	1244
bin	2.02208e-05	1248
bin	2.0292e-05	1269
bin	2.03632e-05	1259
bin	2.04344e-05	1304
bin	2.05056e-05	1167
bin	2.05768e-05	1265
bin	2.0648e-05	1260
bin	2.07192e-05	1245
bin	2.07904e-05	1311
bin	2.08616e-05	1231
bin	2.09328e-05	1233
bin	2.1004e-05	1257
bin	2.10752e-05	1257
bin	2.11464e-05	1259
bin	2.12176e-05	1250
bin	2.12888e-05	1222
bin	2.136e-05	1253
bin	2.14312e-05	1217
bin	2.15024e-05	1258
bin	2.15736e-05	1310
bin	2.16448e-05	1264
bin	2.1716e-05	1205
bin	2.17872e-05	1232
bin	2.18584e-05	1243
bin	2.19296e-05	1210
bin	2.20008e-05	1230
bin	2.2072e-05	1173
bin	2.21432e-05	1189
bin	2.22144e-05	1147
bin	2.22856e-05	1129
bin	2.23568e-05	1143
bin	2.2428e-05	1186
bin	2.24992e-05	1168
bin	2.25704e-05	1163
bin	2.26416e-05	1122
bin	2.27128e-05	1161
bin	2.2784e-05	1177
bin	2.28552e-05	1226
bin	2.29264e-05	1127
bin	2.29976e-05	1167
bin	2.30688e-05	1148
bin	2.314e-05	1142
bin	2.32112e-05	1124
bin	2.32824e-05	1122
bin	2.33536e-05	1174
bin	2.34248e-05	1113
bin	2.3496e-05	1179
bin	2.35672e-05	1190
bin	2.36384e-05	1165
bin	2.37096e-05	1182
bin	2.37808e-05	1139
bin	2.3852e-05	1137
bin	2.39232e-05	1104
bin	2.39944e-05	1096
bin	2.40656e-05	1163
bin	2.41368e-05	1144
bin	2.4208e-05	1147
bin	2.42792e-05	1121
bin	2.43504e-05	1130
bin	2.44216e-05	1137
bin	2.44928e-05	1143
bin	2.4564e-05	1095
bin	2.46352e-05	1159
bin	2.47064e-05	1182
bin	2.47776e-05	1131
bin	2.48488e-05	1179
bin	2.492e-05	1201
bin	2.49912e-05	1149
bin	2.50624e-05	1133
bin	2.51336e-05	1156
bin	2.52048e-05	1203
bin	2.5276e-05	1186
bin	2.53472e-05	1121
bin	2.54184e-05	1152
bin	2.54896e-05	1110
bin	2.55608e-05	1119
bin	2.5632e-05	1080
bin	2.57032e-05	1108
bin	2.57744e-05	1123
bin	2.58456e-05	1098
bin	2.59168e-05	1052
bin	2.5988e-05	1127
bin	2.60592e-05	1099
bin	2.61304e-05	1144
bin	2.62016e-05	1130
bin	2.62728e-05	1100
bin	2.6344e-05	1074
bin	2.64152e-05	1070
bin	2.64864e-05	1072
bin	2.65576e-05	1077
bin	2.66288e-05	1127
bin	2.67e-05	1056
bin	2.67712e-05	1068
bin	2.68424e-05	1037
bin	2.69136e-05	1062
bin	2.69848e-05	1079
bin	2.7056e-05	1083
bin	2.71272e-05	1044
bin	2.71984e-05	1087
bin	2.72696e-05	1088
bin	2.73408e-05	1039
bin	2.7412e-05	1075
bin	2.74832e-05	1048
bin	2.75544e-05	1084
bin	2.76256e-05	1089
bin	2.76968e-05	1086
bin	2.7768e-05	1072
bin	2.78392e-05	1072
bin	2.79104e-05	1094
bin	2.79816e-05	1121
bin	2.80528e-05	1159
bin	2.8124e-05	1109
bin	2.81952e-05	1061
bin	2.82664e-05	1174
bin	2.83376e-05	1093
bin	2.84088e-05	1074
bin	2.848e-05	1070
bin	2.85512e-05	1093
bin	2.86224e-05	1067
bin	2.86936e-05	1126
bin	2.87648e-05	1081
bin	2.8836e-05	1115
bin	2.89072e-05	1048
bin	2.89784e-05	1000
bin	2.90496e-05	993
bin	2.91208e-05	995
bin	2.9192e-05	990
bin	2.92632e-05	991
bin	2.93344e-05	1022
bin	2.94056e-05	1007
bin	2.94768e-05	1020
bin	2.9548e-05	1108
bin	2.96192e-05	1024
bin	2.96904e-05	1071
bin	2.97616e-05	1067
bin	2.98328e-05	1066
bin	2.9904e-05	1072
bin	2.99752e-05	1093
bin	3.00464e-05	1061
bin	3.01176e-05	1089
bin	3.01888e-05	1034
bin	3.026e-05	1108
bin	3.03312e-05	1125
bin	3.04024e-05	1116
bin	3.04736e-05	1170
bin	3.05448e-05	1127
bin	3.0616e-05	1155
bin	3.06872e-05	1157
bin	3.07584e-05	1173
bin	3.08296e-05	1183
bin	3.09008e-05	1243
bin	3.0972e-05	1165
bin	3.10432e-05	1186
bin	3.11144e-05	1163
bin	3.11856e-05	1181
bin	3.12568e-05	1112
bin	3.1328e-05	1033
bin	3.13992e-05	1068
bin	3.14704e-05	1105
bin	3.15416e-05	1070
bin	3.16128e-05	1064
bin	3.1684e-05	1077
bin	3.17552e-05	989
bin	3.18264e-05	1006
bin	3.18976e-05	1029
bin	3.19688e-05	1056
bin	3.204e-05	1057
bin	3.21112e-05	1099
bin	3.21824e-05	1074
bin	3.22536e-05	1074
bin	3.23248e-05	1097
bin	3.2396e-05	1069
bin	3.24672e-05	1130
bin	3.25384e-05	1118
bin	3.26096e-05	1089
bin	3.26808e-05	1136
bin	3.2752e-05	1052
bin	3.28232e-05	1099
bin	3.28944e-05	1025
bin	3.29656e-05	1071
bin	3.30368e-05	1083
bin	3.3108e-05	1078
bin	3.31792e-05	1054
bin	3.32504e-05	1039
bin	3.33216e-05	1069
bin	3.33928e-05	1076
bin	3.3464e-05	1092
bin	3.35352e-05	1126
bin	3.36064e-05	1129
bin	3.36776e-05	1082
bin	3.37488e-05	1062
bin	3.382e-05	1093
bin	3.38912e-05	1083
bin	3.39624e-05	1117
bin	3.40336e-05	1078
bin	3.41048e-05	1062
bin	3.4176e-05	1099
bin	3.42472e-05	1071
bin	3.43184e-05	1088
bin	3.43896e-05	1037
bin	3.44608e-05	1079
bin	3.4532e-05	1013
bin	3.46032e-05	1097
bin	3.46744e-05	1076
bin	3.47456e-05	1064
bin	3.48168e-05	1089
bin	3.4888e-05	1019
bin	3.49592e-05	981
bin	3.50304e-05	1070
bin	3.51016e-05	995
bin	3.51728e-05	1019
bin	3.5244e-05	987
bin	3.53152e-05	1042
bin	3.53864e-05	1037
bin	3.54576e-05	1064
bin	3.55288e-05	990
bin	3.56e-05	4711617
statistic Torus3d_bub.timer 	"Life Times"
field count 6291456
field mean 0.0015935097433163
field stddev 0.0011672697156423
field sum 10025.496435646
field sqrsum 24.547950641491
field min 1.64e-07
field max 0.004596979993119
bin	-INF	0
bin	0	6208
bin	8.544e-07	8192
bin	1.7088e-06	8808
bin	2.5632e-06	10001
bin	3.4176e-06	11221
bin	4.272e-06	12458
bin	5.1264e-06	13939
bin	5.9808e-06	15155
bin	6.8352e-06	16481
bin	7.6896e-06	17798
bin	8.544e-06	19300
bin	9.3984e-06	20248
bin	1.02528e-05	15304
bin	1.11072e-05	14012
bin	1.19616e-05	14722
bin	1.2816e-05	15327
bin	1.36704e-05	16181
bin	1.45248e-05	16556
bin	1.53792e-05	17277
bin	1.62336e-05	17550
bin	1.7088e-05	17752
bin	1.79424e-05	18051
bin	1.87968e-05	18276
bin	1.96512e-05	18679
bin	2.05056e-05	18632
bin	2.136e-05	19284
bin	2.22144e-05	19601
bin	2.30688e-05	20246
bin	2.39232e-05	20861
bin	2.47776e-05	21548
bin	2.5632e-05	22146
bin	2.64864e-05	22772
bin	2.73408e-05	23366
bin	2.81952e-05	23046
bin	2.90496e-05	23059
bin	2.9904e-05	22636
bin	3.07584e-05	22366
bin	3.16128e-05	21596
bin	3.24672e-05	20449
bin	3.33216e-05	19095
bin	3.4176e-05	18253
bin	3.50304e-05	16868
bin	3.58848e-05	15485
bin	3.67392e-05	14171
bin	3.75936e-05	13066
bin	3.8448e-05	11802
bin	3.93024e-05	10692
bin	4.01568e-05	9616
bin	4.10112e-05	8840
bin	4.18656e-05	8038
bin	4.272e-05	7307
bin	4.35744e-05	7010
bin	4.44288e-05	6657
bin	4.52832e-05	6364
bin	4.61376e-05	5990
bin	4.6992e-05	5840
bin	4.78464e-05	5663
bin	4.87008e-05	5462
bin	4.95552e-05	5318
bin	5.04096e-05	5259
bin	5.1264e-05	5252
bin	5.21184e-05	5083
bin	5.29728e-05	5194
bin	5.38272e-05	5239
bin	5.46816e-05	5191
bin	5.5536e-05	4978
bin	5.63904e-05	5083
bin	5.72448e-05	5130
bin	5.80992e-05	5052
bin	5.89536e-05	5153
bin	5.9808e-05	5135
bin	6.06624e-05	5156
bin	6.15168e-05	5228
bin	6.23712e-05	5264
bin	6.32256e-05	4996
bin	6.408e-05	5032
bin	6.49344e-05	4848
bin	6.57888e-05	4789
bin	6.66432e-05	4505
bin	6.74976e-05	4341
bin	6.8352e-05	4123
bin	6.92064e-05	3979
bin	7.00608e-05	3601
bin	7.09152e-05	3434
bin	7.17696e-05	3298
bin	7.2624e-05	3174
bin	7.34784e-05	3113
bin	7.43328e-05	3015
bin	7.51872e-05	2896
bin	7.60416e-05	2781
bin	7.6896e-05	2886
bin	7.77504e-05	2888
bin	7.86048e-05	2821
bin	7.94592e-05	2733
bin	8.03136e-05	2769
bin	8.1168e-05	2821
bin	8.20224e-05	2874
bin	8.28768e-05	2954
bin	8.37312e-05	2926
bin	8.45856e-05	2949
bin	8.544e-05	2953
bin	8.62944e-05	2993
bin	8.71488e-05	2944
bin	8.80032e-05	3078
bin	8.88576e-05	3008
bin	8.9712e-05	2920
bin	9.05664e-05	3064
bin	9.14208e-05	2998
bin	9.22752e-05	3104
bin	9.31296e-05	2979
bin	9.3984e-05	3020
bin	9.48384e-05	2893
bin	9.56928e-05	2856
bin	9.65472e-05	2764
bin	9.74016e-05	2738
bin	9.8256e-05	2566
bin	9.91104e-05	2455
bin	9.99648e-05	2303
bin	0.0001008192	2337
bin	0.0001016736	2196
bin	0.000102528	2136
bin	0.0001033824	2083
bin	0.0001042368	2084
bin	0.0001050912	2064
bin	0.0001059456	1937
bin	0.0001068	2016
bin	0.0001076544	1981
bin	0.0001085088	1923
bin	0.0001093632	1955
bin	0.0001102176	1911
bin	0.000111072	1942
bin	0.0001119264	1943
bin	0.0001127808	1981
bin	0.0001136352	1995
bin	0.0001144896	2050
bin	0.000115344	2017
bin	0.0001161984	2028
bin	0.0001170528	2045
bin	0.0001179072	1991
bin	0.0001187616	2078
bin	0.000119616	2098
bin	0.0001204704	2071
bin	0.0001213248	2053
bin	0.0001221792	2171
bin	0.0001230336	2192
bin	0.000123888	2174
bin	0.0001247424	2227
bin	0.0001255968	2184
bin	0.0001264512	2244
bin	0.0001273056	2124
bin	0.00012816	2138
bin	0.0001290144	2002
bin	0.0001298688	2003
bin	0.0001307232	1951
bin	0.0001315776	1847
bin	0.000132432	1815
bin	0.0001332864	1748
bin	0.0001341408	1725
bin	0.0001349952	1682
bin	0.0001358496	1612
bin	0.000136704	1607
bin	0.0001375584	1616
bin	0.0001384128	1655
bin	0.0001392672	1593
bin	0.0001401216	1676
bin	0.000140976	1643
bin	0.0001418304	1718
bin	0.0001426848	1646
bin	0.0001435392	1671
bin	0.0001443936	1789
bin	0.000145248	1737
bin	0.0001461024	1821
bin	0.0001469568	1739
bin	0.0001478112	1785
bin	0.0001486656	1803
bin	0.00014952	1796
bin	0.0001503744	1849
bin	0.0001512288	1813
bin	0.0001520832	1766
bin	0.0001529376	1782
bin	0.000153792	1833
bin	0.0001546464	1825
bin	0.0001555008	1859
bin	0.0001563552	1828
bin	0.0001572096	1847
bin	0.000158064	1754
bin	0.0001589184	1701
bin	0.0001597728	1640
bin	0.0001606272	1546
bin	0.0001614816	1546
bin	0.000162336	1532
bin	0.0001631904	1486
bin	0.0001640448	1469
bin	0.0001648992	1410
bin	0.0001657536	1387
bin	0.000166608	1343
bin	0.0001674624	1403
bin	0.0001683168	1361
bin	0.0001691712	1364
bin	0.0001700256	1361
bin	0.00017088	1375
bin	0.0001717344	1431
bin	0.0001725888	1477
bin	0.0001734432	1423
bin	0.0001742976	1453
bin	0.000175152	1501
bin	0.0001760064	1476
bin	0.0001768608	1502
bin	0.0001777152	1540
bin	0.0001785696	1541
bin	0.000179424	1537
bin	0.0001802784	1649
bin	0.0001811328	1551
bin	0.0001819872	1594
bin	0.0001828416	1622
bin	0.000183696	1711
bin	0.0001845504	1632
bin	0.0001854048	1663
bin	0.0001862592	1679
bin	0.0001871136	1648
bin	0.000187968	1661
bin	0.0001888224	1588
bin	0.0001896768	1596
bin	0.0001905312	1489
bin	0.0001913856	1450
bin	0.00019224	1366
bin	0.0001930944	1329
bin	0.0001939488	1428
bin	0.0001948032	1398
bin	0.0001956576	1373
bin	0.000196512	1308
bin	0.0001973664	1251
bin	0.0001982208	1266
bin	0.0001990752	1262
bin	0.0001999296	1273
bin	0.000200784	1263
bin	0.0002016384	1279
bin	0.0002024928	1250
bin	0.0002033472	1326
bin	0.0002042016	1371
bin	0.000205056	1377
bin	0.0002059104	1422
bin	0.0002067648	1419
bin	0.0002076192	1415
bin	0.0002084736	1428
bin	0.000209328	1425
bin	0.0002101824	1369
bin	0.0002110368	1374
bin	0.0002118912	1385
bin	0.0002127456	1416
bin	0.0002136	1486
bin	0.0002144544	1474
bin	0.0002153088	1489
bin	0.0002161632	1550
bin	0.0002170176	1553
bin	0.000217872	1544
bin	0.0002187264	1460
bin	0.0002195808	1488
bin	0.0002204352	1411
bin	0.0002212896	1389
bin	0.000222144	1353
bin	0.0002229984	1293
bin	0.0002238528	1314
bin	0.0002247072	1394
bin	0.0002255616	1304
bin	0.000226416	1291
bin	0.0002272704	1190
bin	0.0002281248	1240
bin	0.0002289792	1302
bin	0.0002298336	1250
bin	0.000230688	1251
bin	0.0002315424	1265
bin	0.0002323968	1262
bin	0.0002332512	1308
bin	0.0002341056	1260
bin	0.00023496	1301
bin	0.0002358144	1333
bin	0.0002366688	1317
bin	0.0002375232	1313
bin	0.0002383776	1326
bin	0.000239232	1359
bin	0.0002400864	1358
bin	0.0002409408	1339
bin	0.0002417952	1315
bin	0.0002426496	1374
bin	0.000243504	1375
bin	0.0002443584	1383
bin	0.0002452128	1373
bin	0.0002460672	1398
bin	0.0002469216	1395
bin	0.000247776	1370
bin	0.0002486304	1358
bin	0.0002494848	1416
bin	0.0002503392	1393
bin	0.0002511936	1342
bin	0.000252048	1341
bin	0.0002529024	1302
bin	0.0002537568	1260
bin	0.0002546112	1341
bin	0.0002554656	1246
bin	0.00025632	1177
bin	0.0002571744	1197
bin	0.0002580288	1216
bin	0.0002588832	1192
bin	0.0002597376	1135
bin	0.000260592	1168
bin	0.0002614464	1140
bin	0.0002623008	1136
bin	0.0002631552	1118
bin	0.0002640096	1148
bin	0.000264864	1156
bin	0.0002657184	1174
bin	0.0002665728	1124
bin	0.0002674272	1136
bin	0.0002682816	1168
bin	0.000269136	1245
bin	0.0002699904	1301
bin	0.0002708448	1280
bin	0.0002716992	1293
bin	0.0002725536	1305
bin	0.000273408	1271
bin	0.0002742624	1330
bin	0.0002751168	1276
bin	0.0002759712	1225
bin	0.0002768256	1314
bin	0.00027768	1342
bin	0.0002785344	1374
bin	0.0002793888	1274
bin	0.0002802432	1314
bin	0.0002810976	1168
bin	0.000281952	1207
bin	0.0002828064	1167
bin	0.0002836608	1151
bin	0.0002845152	1138
bin	0.0002853696	1122
bin	0.000286224	1091
bin	0.0002870784	1091
bin	0.0002879328	1058
bin	0.0002887872	1095
bin	0.0002896416	1040
bin	0.000290496	1046
bin	0.0002913504	1025
bin	0.0002922048	1063
bin	0.0002930592	1020
bin	0.0002939136	1087
bin	0.000294768	1007
bin	0.0002956224	1094
bin	0.0002964768	1058
bin	0.0002973312	1067
bin	0.0002981856	1119
bin	0.00029904	1057
bin	0.0002998944	1117
bin	0.0003007488	1139
bin	0.0003016032	1088
bin	0.0003024576	1120
bin	0.000303312	1098
bin	0.0003041664	1132
bin	0.0003050208	1143
bin	0.0003058752	1186
bin	0.0003067296	1200
bin	0.000307584	1201
bin	0.0003084384	1239
bin	0.0003092928	1185
bin	0.0003101472	1216
bin	0.0003110016	1150
bin	0.000311856	1178
bin	0.0003127104	1195
bin	0.0003135648	1177
bin	0.0003144192	1153
bin	0.0003152736	1135
bin	0.000316128	1132
bin	0.0003169824	1126
bin	0.0003178368	1133
bin	0.0003186912	1089
bin	0.0003195456	1038
bin	0.0003204	1096
bin	0.0003212544	984
bin	0.0003221088	996
bin	0.0003229632	1043
bin	0.0003238176	1086
bin	0.000324672	1092
bin	0.0003255264	1108
bin	0.0003263808	1127
bin	0.0003272352	1128
bin	0.0003280896	1114
bin	0.000328944	1161
bin	0.0003297984	1149
bin	0.0003306528	1170
bin	0.0003315072	1148
bin	0.0003323616	1167
bin	0.000333216	1179
bin	0.0003340704	1212
bin	0.0003349248	1229
bin	0.0003357792	1200
bin	0.0003366336	1258
bin	0.000337488	1245
bin	0.0003383424	1225
bin	0.0003391968	1279
bin	0.0003400512	1216
bin	0.0003409056	1206
bin	0.00034176	1241
bin	0.0003426144	1256
bin	0.0003434688	1213
bin	0.0003443232	1140
bin	0.0003451776	1111
bin	0.000346032	1092
bin	0.0003468864	1057
bin	0.0003477408	1044
bin	0.0003485952	992
bin	0.0003494496	982
bin	0.000350304	1002
bin	0.0003511584	1009
bin	0.0003520128	1024
bin	0.0003528672	1035
bin	0.0003537216	1030
bin	0.000354576	1061
bin	0.0003554304	1107
bin	0.0003562848	1072
bin	0.0003571392	1067
bin	0.0003579936	1061
bin	0.000358848	1045
bin	0.0003597024	1100
bin	0.0003605568	1072
bin	0.0003614112	1067
bin	0.0003622656	1098
bin	0.00036312	1110
bin	0.0003639744	1137
bin	0.0003648288	1135
bin	0.0003656832	1128
bin	0.0003665376	1127
bin	0.000367392	1091
bin	0.0003682464	1082
bin	0.0003691008	1066
bin	0.0003699552	1097
bin	0.0003708096	1160
bin	0.000371664	1144
bin	0.0003725184	1032
bin	0.0003733728	1047
bin	0.0003742272	994
bin	0.0003750816	954
bin	0.000375936	1000
bin	0.0003767904	978
bin	0.0003776448	937
bin	0.0003784992	943
bin	0.0003793536	918
bin	0.000380208	907
bin	0.0003810624	925
bin	0.0003819168	906
bin	0.0003827712	927
bin	0.0003836256	949
bin	0.00038448	962
bin	0.0003853344	927
bin	0.0003861888	960
bin	0.0003870432	925
bin	0.0003878976	932
bin	0.000388752	949
bin	0.0003896064	921
bin	0.0003904608	909
bin	0.0003913152	985
bin	0.0003921696	948
bin	0.000393024	987
bin	0.0003938784	1002
bin	0.0003947328	996
bin	0.0003955872	1056
bin	0.0003964416	1038
bin	0.000397296	1028
bin	0.0003981504	1005
bin	0.0003990048	1034
bin	0.0003998592	1015
bin	0.0004007136	1022
bin	0.000401568	1057
bin	0.0004024224	1050
bin	0.0004032768	1039
bin	0.0004041312	1024
bin	0.0004049856	989
bin	0.00040584	951
bin	0.0004066944	955
bin	0.0004075488	927
bin	0.0004084032	957
bin	0.0004092576	919
bin	0.000410112	933
bin	0.0004109664	955
bin	0.0004118208	918
bin	0.0004126752	904
bin	0.0004135296	939
bin	0.000414384	913
bin	0.0004152384	962
bin	0.0004160928	957
bin	0.0004169472	922
bin	0.0004178016	917
bin	0.000418656	1004
bin	0.0004195104	980
bin	0.0004203648	1036
bin	0.0004212192	1006
bin	0.0004220736	1055
bin	0.000422928	948
bin	0.0004237824	971
bin	0.0004246368	1030
bin	0.0004254912	978
bin	0.0004263456	1029
bin	0.0004272	4680785
