version 2
run Transposition-77-20120710-19:21:14-28040
attr alg 1
attr buf 8
attr configname Transposition
attr datetime 20120710-19:21:14
attr delta 1
attr experiment Transposition
attr ext false
attr inifile altro.ini
attr iterationvars "$buf=8, $ext=false, $ofedge=2, $delta=1, $alg=1"
attr iterationvars2 "$buf=8, $ext=false, $ofedge=2, $delta=1, $alg=1, $repetition=0"
attr measurement "$buf=8, $ext=false, $ofedge=2, $delta=1, $alg=1"
attr network Torus3d_bub
attr ofedge 2
attr processid 28040
attr repetition 0
attr replication #0
attr resultdir altro-results
attr runnumber 77
attr seedset 77

scalar . 	alg 	1
scalar . 	buf 	8
scalar . 	delta 	1
scalar . 	ofedge 	2
scalar Torus3d_bub.timer 	#endTime 	0.004855845659359
scalar Torus3d_bub.timer 	#totalHops 	88790232
scalar Torus3d_bub.timer 	#totalPacks 	6291456
scalar Torus3d_bub.timer 	#totalDerouted 	1866507
scalar Torus3d_bub.timer 	#totalOutFlanked 	1866507
scalar Torus3d_bub.timer 	#totalCQRed 	0
scalar Torus3d_bub.timer 	#LB 	0.000786432
scalar Torus3d_bub.timer 	#ratio 	0.16195572412485
statistic Torus3d_bub.timer 	"Hop Times"
field count 6193152
field mean 0.00012870943211588
field stddev 7.9797031816069e-05
field sum 797.11707692736
field sqrsum 0.14203178581696
field min 3.78296296e-07
field max 0.000776418333333
bin	-INF	0
bin	0	0
bin	7.12e-08	0
bin	1.424e-07	0
bin	2.136e-07	0
bin	2.848e-07	0
bin	3.56e-07	243
bin	4.272e-07	933
bin	4.984e-07	1671
bin	5.696e-07	2465
bin	6.408e-07	3306
bin	7.12e-07	4046
bin	7.832e-07	4887
bin	8.544e-07	5673
bin	9.256e-07	6331
bin	9.968e-07	7095
bin	1.068e-06	8062
bin	1.1392e-06	8868
bin	1.2104e-06	9674
bin	1.2816e-06	10775
bin	1.3528e-06	11791
bin	1.424e-06	12740
bin	1.4952e-06	13852
bin	1.5664e-06	14774
bin	1.6376e-06	15037
bin	1.7088e-06	15718
bin	1.78e-06	15499
bin	1.8512e-06	15557
bin	1.9224e-06	15731
bin	1.9936e-06	15706
bin	2.0648e-06	15116
bin	2.136e-06	14779
bin	2.2072e-06	14508
bin	2.2784e-06	14086
bin	2.3496e-06	13512
bin	2.4208e-06	12799
bin	2.492e-06	12372
bin	2.5632e-06	11796
bin	2.6344e-06	11415
bin	2.7056e-06	10885
bin	2.7768e-06	10585
bin	2.848e-06	10103
bin	2.9192e-06	9618
bin	2.9904e-06	9252
bin	3.0616e-06	8904
bin	3.1328e-06	8462
bin	3.204e-06	8222
bin	3.2752e-06	7874
bin	3.3464e-06	7506
bin	3.4176e-06	6977
bin	3.4888e-06	6717
bin	3.56e-06	6389
bin	3.6312e-06	6073
bin	3.7024e-06	5753
bin	3.7736e-06	5629
bin	3.8448e-06	5398
bin	3.916e-06	5301
bin	3.9872e-06	5090
bin	4.0584e-06	4993
bin	4.1296e-06	4765
bin	4.2008e-06	4704
bin	4.272e-06	4591
bin	4.3432e-06	4414
bin	4.4144e-06	4275
bin	4.4856e-06	4168
bin	4.5568e-06	4117
bin	4.628e-06	3935
bin	4.6992e-06	3898
bin	4.7704e-06	3910
bin	4.8416e-06	3769
bin	4.9128e-06	3852
bin	4.984e-06	3667
bin	5.0552e-06	3719
bin	5.1264e-06	3693
bin	5.1976e-06	3593
bin	5.2688e-06	3529
bin	5.34e-06	3413
bin	5.4112e-06	3388
bin	5.4824e-06	3139
bin	5.5536e-06	3245
bin	5.6248e-06	3065
bin	5.696e-06	3066
bin	5.7672e-06	2958
bin	5.8384e-06	2882
bin	5.9096e-06	2898
bin	5.9808e-06	2814
bin	6.052e-06	2831
bin	6.1232e-06	2742
bin	6.1944e-06	2676
bin	6.2656e-06	2676
bin	6.3368e-06	2526
bin	6.408e-06	2515
bin	6.4792e-06	2439
bin	6.5504e-06	2458
bin	6.6216e-06	2441
bin	6.6928e-06	2339
bin	6.764e-06	2260
bin	6.8352e-06	2248
bin	6.9064e-06	2221
bin	6.9776e-06	2344
bin	7.0488e-06	2243
bin	7.12e-06	2252
bin	7.1912e-06	2238
bin	7.2624e-06	2256
bin	7.3336e-06	2280
bin	7.4048e-06	2267
bin	7.476e-06	2212
bin	7.5472e-06	2235
bin	7.6184e-06	2251
bin	7.6896e-06	2191
bin	7.7608e-06	2169
bin	7.832e-06	2169
bin	7.9032e-06	2228
bin	7.9744e-06	2215
bin	8.0456e-06	2164
bin	8.1168e-06	2108
bin	8.188e-06	1969
bin	8.2592e-06	1954
bin	8.3304e-06	2012
bin	8.4016e-06	1922
bin	8.4728e-06	1946
bin	8.544e-06	1824
bin	8.6152e-06	1808
bin	8.6864e-06	1825
bin	8.7576e-06	1794
bin	8.8288e-06	1829
bin	8.9e-06	1823
bin	8.9712e-06	1806
bin	9.0424e-06	1769
bin	9.1136e-06	1784
bin	9.1848e-06	1844
bin	9.256e-06	1836
bin	9.3272e-06	1795
bin	9.3984e-06	1784
bin	9.4696e-06	1720
bin	9.5408e-06	1788
bin	9.612e-06	1737
bin	9.6832e-06	1744
bin	9.7544e-06	1798
bin	9.8256e-06	1798
bin	9.8968e-06	1773
bin	9.968e-06	1733
bin	1.00392e-05	1775
bin	1.01104e-05	1657
bin	1.01816e-05	1696
bin	1.02528e-05	1712
bin	1.0324e-05	1704
bin	1.03952e-05	1705
bin	1.04664e-05	1687
bin	1.05376e-05	1703
bin	1.06088e-05	1602
bin	1.068e-05	1631
bin	1.07512e-05	1627
bin	1.08224e-05	1588
bin	1.08936e-05	1587
bin	1.09648e-05	1657
bin	1.1036e-05	1543
bin	1.11072e-05	1602
bin	1.11784e-05	1515
bin	1.12496e-05	1520
bin	1.13208e-05	1481
bin	1.1392e-05	1513
bin	1.14632e-05	1447
bin	1.15344e-05	1481
bin	1.16056e-05	1404
bin	1.16768e-05	1401
bin	1.1748e-05	1474
bin	1.18192e-05	1404
bin	1.18904e-05	1395
bin	1.19616e-05	1462
bin	1.20328e-05	1438
bin	1.2104e-05	1463
bin	1.21752e-05	1442
bin	1.22464e-05	1432
bin	1.23176e-05	1430
bin	1.23888e-05	1481
bin	1.246e-05	1501
bin	1.25312e-05	1521
bin	1.26024e-05	1481
bin	1.26736e-05	1439
bin	1.27448e-05	1441
bin	1.2816e-05	1463
bin	1.28872e-05	1383
bin	1.29584e-05	1410
bin	1.30296e-05	1318
bin	1.31008e-05	1317
bin	1.3172e-05	1286
bin	1.32432e-05	1313
bin	1.33144e-05	1384
bin	1.33856e-05	1323
bin	1.34568e-05	1356
bin	1.3528e-05	1334
bin	1.35992e-05	1279
bin	1.36704e-05	1362
bin	1.37416e-05	1350
bin	1.38128e-05	1355
bin	1.3884e-05	1352
bin	1.39552e-05	1387
bin	1.40264e-05	1347
bin	1.40976e-05	1347
bin	1.41688e-05	1357
bin	1.424e-05	1353
bin	1.43112e-05	1352
bin	1.43824e-05	1354
bin	1.44536e-05	1395
bin	1.45248e-05	1318
bin	1.4596e-05	1315
bin	1.46672e-05	1363
bin	1.47384e-05	1323
bin	1.48096e-05	1330
bin	1.48808e-05	1295
bin	1.4952e-05	1312
bin	1.50232e-05	1311
bin	1.50944e-05	1278
bin	1.51656e-05	1289
bin	1.52368e-05	1280
bin	1.5308e-05	1240
bin	1.53792e-05	1236
bin	1.54504e-05	1304
bin	1.55216e-05	1293
bin	1.55928e-05	1319
bin	1.5664e-05	1283
bin	1.57352e-05	1240
bin	1.58064e-05	1238
bin	1.58776e-05	1235
bin	1.59488e-05	1238
bin	1.602e-05	1292
bin	1.60912e-05	1191
bin	1.61624e-05	1210
bin	1.62336e-05	1159
bin	1.63048e-05	1181
bin	1.6376e-05	1154
bin	1.64472e-05	1176
bin	1.65184e-05	1170
bin	1.65896e-05	1143
bin	1.66608e-05	1194
bin	1.6732e-05	1176
bin	1.68032e-05	1181
bin	1.68744e-05	1170
bin	1.69456e-05	1250
bin	1.70168e-05	1153
bin	1.7088e-05	1235
bin	1.71592e-05	1195
bin	1.72304e-05	1210
bin	1.73016e-05	1232
bin	1.73728e-05	1208
bin	1.7444e-05	1168
bin	1.75152e-05	1165
bin	1.75864e-05	1163
bin	1.76576e-05	1124
bin	1.77288e-05	1117
bin	1.78e-05	1076
bin	1.78712e-05	1082
bin	1.79424e-05	1131
bin	1.80136e-05	1049
bin	1.80848e-05	1120
bin	1.8156e-05	1034
bin	1.82272e-05	1066
bin	1.82984e-05	1027
bin	1.83696e-05	1016
bin	1.84408e-05	1052
bin	1.8512e-05	1034
bin	1.85832e-05	1051
bin	1.86544e-05	1087
bin	1.87256e-05	1116
bin	1.87968e-05	1057
bin	1.8868e-05	1146
bin	1.89392e-05	1129
bin	1.90104e-05	1127
bin	1.90816e-05	1138
bin	1.91528e-05	1094
bin	1.9224e-05	1072
bin	1.92952e-05	1106
bin	1.93664e-05	1082
bin	1.94376e-05	1106
bin	1.95088e-05	1104
bin	1.958e-05	1118
bin	1.96512e-05	1111
bin	1.97224e-05	1133
bin	1.97936e-05	1109
bin	1.98648e-05	1154
bin	1.9936e-05	1140
bin	2.00072e-05	1158
bin	2.00784e-05	1134
bin	2.01496e-05	1090
bin	2.02208e-05	1153
bin	2.0292e-05	1086
bin	2.03632e-05	1053
bin	2.04344e-05	1105
bin	2.05056e-05	1047
bin	2.05768e-05	1044
bin	2.0648e-05	1074
bin	2.07192e-05	1057
bin	2.07904e-05	1092
bin	2.08616e-05	1002
bin	2.09328e-05	1028
bin	2.1004e-05	1077
bin	2.10752e-05	1049
bin	2.11464e-05	1025
bin	2.12176e-05	1060
bin	2.12888e-05	1064
bin	2.136e-05	1003
bin	2.14312e-05	1043
bin	2.15024e-05	1024
bin	2.15736e-05	972
bin	2.16448e-05	994
bin	2.1716e-05	945
bin	2.17872e-05	979
bin	2.18584e-05	967
bin	2.19296e-05	980
bin	2.20008e-05	985
bin	2.2072e-05	1036
bin	2.21432e-05	960
bin	2.22144e-05	999
bin	2.22856e-05	1030
bin	2.23568e-05	912
bin	2.2428e-05	922
bin	2.24992e-05	948
bin	2.25704e-05	943
bin	2.26416e-05	961
bin	2.27128e-05	959
bin	2.2784e-05	935
bin	2.28552e-05	873
bin	2.29264e-05	885
bin	2.29976e-05	888
bin	2.30688e-05	874
bin	2.314e-05	917
bin	2.32112e-05	903
bin	2.32824e-05	917
bin	2.33536e-05	915
bin	2.34248e-05	963
bin	2.3496e-05	924
bin	2.35672e-05	963
bin	2.36384e-05	934
bin	2.37096e-05	944
bin	2.37808e-05	873
bin	2.3852e-05	880
bin	2.39232e-05	927
bin	2.39944e-05	910
bin	2.40656e-05	982
bin	2.41368e-05	942
bin	2.4208e-05	1003
bin	2.42792e-05	1001
bin	2.43504e-05	971
bin	2.44216e-05	950
bin	2.44928e-05	1003
bin	2.4564e-05	977
bin	2.46352e-05	965
bin	2.47064e-05	977
bin	2.47776e-05	974
bin	2.48488e-05	972
bin	2.492e-05	986
bin	2.49912e-05	963
bin	2.50624e-05	898
bin	2.51336e-05	1005
bin	2.52048e-05	973
bin	2.5276e-05	976
bin	2.53472e-05	950
bin	2.54184e-05	986
bin	2.54896e-05	927
bin	2.55608e-05	906
bin	2.5632e-05	911
bin	2.57032e-05	885
bin	2.57744e-05	872
bin	2.58456e-05	883
bin	2.59168e-05	896
bin	2.5988e-05	874
bin	2.60592e-05	879
bin	2.61304e-05	875
bin	2.62016e-05	866
bin	2.62728e-05	843
bin	2.6344e-05	909
bin	2.64152e-05	843
bin	2.64864e-05	831
bin	2.65576e-05	889
bin	2.66288e-05	850
bin	2.67e-05	880
bin	2.67712e-05	967
bin	2.68424e-05	877
bin	2.69136e-05	920
bin	2.69848e-05	956
bin	2.7056e-05	878
bin	2.71272e-05	861
bin	2.71984e-05	910
bin	2.72696e-05	900
bin	2.73408e-05	852
bin	2.7412e-05	908
bin	2.74832e-05	920
bin	2.75544e-05	930
bin	2.76256e-05	943
bin	2.76968e-05	948
bin	2.7768e-05	900
bin	2.78392e-05	891
bin	2.79104e-05	892
bin	2.79816e-05	883
bin	2.80528e-05	884
bin	2.8124e-05	897
bin	2.81952e-05	852
bin	2.82664e-05	873
bin	2.83376e-05	865
bin	2.84088e-05	850
bin	2.848e-05	903
bin	2.85512e-05	869
bin	2.86224e-05	877
bin	2.86936e-05	896
bin	2.87648e-05	907
bin	2.8836e-05	957
bin	2.89072e-05	903
bin	2.89784e-05	878
bin	2.90496e-05	927
bin	2.91208e-05	923
bin	2.9192e-05	909
bin	2.92632e-05	926
bin	2.93344e-05	890
bin	2.94056e-05	905
bin	2.94768e-05	918
bin	2.9548e-05	938
bin	2.96192e-05	925
bin	2.96904e-05	952
bin	2.97616e-05	956
bin	2.98328e-05	897
bin	2.9904e-05	901
bin	2.99752e-05	904
bin	3.00464e-05	887
bin	3.01176e-05	901
bin	3.01888e-05	926
bin	3.026e-05	922
bin	3.03312e-05	934
bin	3.04024e-05	893
bin	3.04736e-05	947
bin	3.05448e-05	913
bin	3.0616e-05	981
bin	3.06872e-05	924
bin	3.07584e-05	903
bin	3.08296e-05	920
bin	3.09008e-05	956
bin	3.0972e-05	939
bin	3.10432e-05	927
bin	3.11144e-05	909
bin	3.11856e-05	869
bin	3.12568e-05	919
bin	3.1328e-05	909
bin	3.13992e-05	885
bin	3.14704e-05	928
bin	3.15416e-05	943
bin	3.16128e-05	954
bin	3.1684e-05	988
bin	3.17552e-05	956
bin	3.18264e-05	966
bin	3.18976e-05	934
bin	3.19688e-05	942
bin	3.204e-05	1036
bin	3.21112e-05	990
bin	3.21824e-05	971
bin	3.22536e-05	1048
bin	3.23248e-05	972
bin	3.2396e-05	1048
bin	3.24672e-05	1023
bin	3.25384e-05	1010
bin	3.26096e-05	1006
bin	3.26808e-05	1050
bin	3.2752e-05	1028
bin	3.28232e-05	961
bin	3.28944e-05	937
bin	3.29656e-05	881
bin	3.30368e-05	896
bin	3.3108e-05	960
bin	3.31792e-05	948
bin	3.32504e-05	965
bin	3.33216e-05	958
bin	3.33928e-05	943
bin	3.3464e-05	910
bin	3.35352e-05	965
bin	3.36064e-05	973
bin	3.36776e-05	943
bin	3.37488e-05	927
bin	3.382e-05	952
bin	3.38912e-05	962
bin	3.39624e-05	944
bin	3.40336e-05	945
bin	3.41048e-05	950
bin	3.4176e-05	945
bin	3.42472e-05	965
bin	3.43184e-05	977
bin	3.43896e-05	994
bin	3.44608e-05	1006
bin	3.4532e-05	942
bin	3.46032e-05	932
bin	3.46744e-05	1067
bin	3.47456e-05	920
bin	3.48168e-05	883
bin	3.4888e-05	905
bin	3.49592e-05	913
bin	3.50304e-05	958
bin	3.51016e-05	874
bin	3.51728e-05	901
bin	3.5244e-05	984
bin	3.53152e-05	945
bin	3.53864e-05	941
bin	3.54576e-05	939
bin	3.55288e-05	872
bin	3.56e-05	5095269
statistic Torus3d_bub.timer 	"Life Times"
field count 6291456
field mean 0.0018527582384017
field stddev 0.0012235235419552
field sum 11656.546935542
field sqrsum 31.015133520535
field min 1.64e-07
field max 0.004683307993071
bin	-INF	0
bin	0	6592
bin	8.544e-07	8192
bin	1.7088e-06	8741
bin	2.5632e-06	9283
bin	3.4176e-06	10026
bin	4.272e-06	10954
bin	5.1264e-06	11998
bin	5.9808e-06	13125
bin	6.8352e-06	14294
bin	7.6896e-06	15344
bin	8.544e-06	16484
bin	9.3984e-06	17444
bin	1.02528e-05	11985
bin	1.11072e-05	11363
bin	1.19616e-05	11862
bin	1.2816e-05	12367
bin	1.36704e-05	13183
bin	1.45248e-05	13364
bin	1.53792e-05	13995
bin	1.62336e-05	14218
bin	1.7088e-05	14335
bin	1.79424e-05	14450
bin	1.87968e-05	14764
bin	1.96512e-05	14910
bin	2.05056e-05	15075
bin	2.136e-05	15044
bin	2.22144e-05	15382
bin	2.30688e-05	15390
bin	2.39232e-05	15682
bin	2.47776e-05	16063
bin	2.5632e-05	16481
bin	2.64864e-05	16026
bin	2.73408e-05	15769
bin	2.81952e-05	15110
bin	2.90496e-05	14134
bin	2.9904e-05	13455
bin	3.07584e-05	12429
bin	3.16128e-05	11414
bin	3.24672e-05	10332
bin	3.33216e-05	9363
bin	3.4176e-05	8359
bin	3.50304e-05	7575
bin	3.58848e-05	6938
bin	3.67392e-05	6412
bin	3.75936e-05	6036
bin	3.8448e-05	5679
bin	3.93024e-05	5507
bin	4.01568e-05	5379
bin	4.10112e-05	5257
bin	4.18656e-05	5048
bin	4.272e-05	4978
bin	4.35744e-05	4937
bin	4.44288e-05	4870
bin	4.52832e-05	4844
bin	4.61376e-05	4998
bin	4.6992e-05	4926
bin	4.78464e-05	4942
bin	4.87008e-05	5112
bin	4.95552e-05	5152
bin	5.04096e-05	4975
bin	5.1264e-05	4961
bin	5.21184e-05	4896
bin	5.29728e-05	4724
bin	5.38272e-05	4552
bin	5.46816e-05	4298
bin	5.5536e-05	4065
bin	5.63904e-05	3978
bin	5.72448e-05	3669
bin	5.80992e-05	3520
bin	5.89536e-05	3415
bin	5.9808e-05	3214
bin	6.06624e-05	3092
bin	6.15168e-05	3011
bin	6.23712e-05	2969
bin	6.32256e-05	2892
bin	6.408e-05	2899
bin	6.49344e-05	2818
bin	6.57888e-05	2849
bin	6.66432e-05	2944
bin	6.74976e-05	2806
bin	6.8352e-05	2864
bin	6.92064e-05	2948
bin	7.00608e-05	2969
bin	7.09152e-05	3045
bin	7.17696e-05	3076
bin	7.2624e-05	3022
bin	7.34784e-05	3076
bin	7.43328e-05	3149
bin	7.51872e-05	3056
bin	7.60416e-05	3035
bin	7.6896e-05	2917
bin	7.77504e-05	2908
bin	7.86048e-05	2887
bin	7.94592e-05	2902
bin	8.03136e-05	2770
bin	8.1168e-05	2642
bin	8.20224e-05	2523
bin	8.28768e-05	2378
bin	8.37312e-05	2288
bin	8.45856e-05	2183
bin	8.544e-05	2125
bin	8.62944e-05	2120
bin	8.71488e-05	2114
bin	8.80032e-05	2015
bin	8.88576e-05	1933
bin	8.9712e-05	1924
bin	9.05664e-05	1928
bin	9.14208e-05	1926
bin	9.22752e-05	2022
bin	9.31296e-05	1997
bin	9.3984e-05	2040
bin	9.48384e-05	2064
bin	9.56928e-05	2120
bin	9.65472e-05	2179
bin	9.74016e-05	2203
bin	9.8256e-05	2238
bin	9.91104e-05	2300
bin	9.99648e-05	2234
bin	0.0001008192	2222
bin	0.0001016736	2163
bin	0.000102528	2117
bin	0.0001033824	2132
bin	0.0001042368	2044
bin	0.0001050912	1935
bin	0.0001059456	1878
bin	0.0001068	1832
bin	0.0001076544	1779
bin	0.0001085088	1804
bin	0.0001093632	1730
bin	0.0001102176	1675
bin	0.000111072	1641
bin	0.0001119264	1575
bin	0.0001127808	1564
bin	0.0001136352	1510
bin	0.0001144896	1580
bin	0.000115344	1503
bin	0.0001161984	1560
bin	0.0001170528	1572
bin	0.0001179072	1637
bin	0.0001187616	1654
bin	0.000119616	1718
bin	0.0001204704	1752
bin	0.0001213248	1766
bin	0.0001221792	1730
bin	0.0001230336	1766
bin	0.000123888	1833
bin	0.0001247424	1814
bin	0.0001255968	1828
bin	0.0001264512	1854
bin	0.0001273056	1811
bin	0.00012816	1778
bin	0.0001290144	1695
bin	0.0001298688	1676
bin	0.0001307232	1529
bin	0.0001315776	1506
bin	0.000132432	1526
bin	0.0001332864	1434
bin	0.0001341408	1431
bin	0.0001349952	1384
bin	0.0001358496	1374
bin	0.000136704	1309
bin	0.0001375584	1346
bin	0.0001384128	1341
bin	0.0001392672	1376
bin	0.0001401216	1329
bin	0.000140976	1375
bin	0.0001418304	1402
bin	0.0001426848	1460
bin	0.0001435392	1456
bin	0.0001443936	1415
bin	0.000145248	1477
bin	0.0001461024	1442
bin	0.0001469568	1553
bin	0.0001478112	1518
bin	0.0001486656	1543
bin	0.00014952	1560
bin	0.0001503744	1535
bin	0.0001512288	1538
bin	0.0001520832	1451
bin	0.0001529376	1448
bin	0.000153792	1478
bin	0.0001546464	1352
bin	0.0001555008	1344
bin	0.0001563552	1359
bin	0.0001572096	1303
bin	0.000158064	1330
bin	0.0001589184	1218
bin	0.0001597728	1247
bin	0.0001606272	1252
bin	0.0001614816	1245
bin	0.000162336	1234
bin	0.0001631904	1252
bin	0.0001640448	1241
bin	0.0001648992	1333
bin	0.0001657536	1279
bin	0.000166608	1279
bin	0.0001674624	1389
bin	0.0001683168	1374
bin	0.0001691712	1347
bin	0.0001700256	1352
bin	0.00017088	1386
bin	0.0001717344	1387
bin	0.0001725888	1407
bin	0.0001734432	1370
bin	0.0001742976	1351
bin	0.000175152	1326
bin	0.0001760064	1349
bin	0.0001768608	1294
bin	0.0001777152	1301
bin	0.0001785696	1270
bin	0.000179424	1276
bin	0.0001802784	1136
bin	0.0001811328	1116
bin	0.0001819872	1129
bin	0.0001828416	1125
bin	0.000183696	1077
bin	0.0001845504	1120
bin	0.0001854048	1082
bin	0.0001862592	1023
bin	0.0001871136	1123
bin	0.000187968	1071
bin	0.0001888224	1115
bin	0.0001896768	1072
bin	0.0001905312	1146
bin	0.0001913856	1145
bin	0.00019224	1150
bin	0.0001930944	1132
bin	0.0001939488	1185
bin	0.0001948032	1191
bin	0.0001956576	1261
bin	0.000196512	1247
bin	0.0001973664	1249
bin	0.0001982208	1286
bin	0.0001990752	1233
bin	0.0001999296	1265
bin	0.000200784	1285
bin	0.0002016384	1247
bin	0.0002024928	1235
bin	0.0002033472	1210
bin	0.0002042016	1195
bin	0.000205056	1177
bin	0.0002059104	1105
bin	0.0002067648	1111
bin	0.0002076192	1041
bin	0.0002084736	1051
bin	0.000209328	1108
bin	0.0002101824	1028
bin	0.0002110368	1091
bin	0.0002118912	1037
bin	0.0002127456	1028
bin	0.0002136	1048
bin	0.0002144544	1083
bin	0.0002153088	1098
bin	0.0002161632	1083
bin	0.0002170176	1132
bin	0.000217872	1155
bin	0.0002187264	1196
bin	0.0002195808	1205
bin	0.0002204352	1258
bin	0.0002212896	1181
bin	0.000222144	1219
bin	0.0002229984	1239
bin	0.0002238528	1209
bin	0.0002247072	1243
bin	0.0002255616	1168
bin	0.000226416	1146
bin	0.0002272704	1219
bin	0.0002281248	1111
bin	0.0002289792	1104
bin	0.0002298336	1041
bin	0.000230688	999
bin	0.0002315424	949
bin	0.0002323968	970
bin	0.0002332512	920
bin	0.0002341056	957
bin	0.00023496	943
bin	0.0002358144	937
bin	0.0002366688	1022
bin	0.0002375232	980
bin	0.0002383776	988
bin	0.000239232	1016
bin	0.0002400864	1022
bin	0.0002409408	1063
bin	0.0002417952	1059
bin	0.0002426496	1053
bin	0.000243504	1070
bin	0.0002443584	1100
bin	0.0002452128	1082
bin	0.0002460672	1115
bin	0.0002469216	1141
bin	0.000247776	1148
bin	0.0002486304	1132
bin	0.0002494848	1128
bin	0.0002503392	1114
bin	0.0002511936	1071
bin	0.000252048	1027
bin	0.0002529024	1004
bin	0.0002537568	1008
bin	0.0002546112	991
bin	0.0002554656	1011
bin	0.00025632	980
bin	0.0002571744	989
bin	0.0002580288	995
bin	0.0002588832	933
bin	0.0002597376	943
bin	0.000260592	943
bin	0.0002614464	955
bin	0.0002623008	962
bin	0.0002631552	950
bin	0.0002640096	936
bin	0.000264864	992
bin	0.0002657184	1004
bin	0.0002665728	956
bin	0.0002674272	998
bin	0.0002682816	1002
bin	0.000269136	998
bin	0.0002699904	1028
bin	0.0002708448	1061
bin	0.0002716992	1047
bin	0.0002725536	1014
bin	0.000273408	957
bin	0.0002742624	988
bin	0.0002751168	988
bin	0.0002759712	1017
bin	0.0002768256	992
bin	0.00027768	999
bin	0.0002785344	926
bin	0.0002793888	929
bin	0.0002802432	978
bin	0.0002810976	978
bin	0.000281952	939
bin	0.0002828064	951
bin	0.0002836608	941
bin	0.0002845152	902
bin	0.0002853696	883
bin	0.000286224	925
bin	0.0002870784	915
bin	0.0002879328	914
bin	0.0002887872	932
bin	0.0002896416	915
bin	0.000290496	912
bin	0.0002913504	905
bin	0.0002922048	946
bin	0.0002930592	930
bin	0.0002939136	964
bin	0.000294768	1014
bin	0.0002956224	1025
bin	0.0002964768	1003
bin	0.0002973312	1002
bin	0.0002981856	1016
bin	0.00029904	995
bin	0.0002998944	1024
bin	0.0003007488	944
bin	0.0003016032	894
bin	0.0003024576	912
bin	0.000303312	939
bin	0.0003041664	883
bin	0.0003050208	877
bin	0.0003058752	902
bin	0.0003067296	900
bin	0.000307584	852
bin	0.0003084384	873
bin	0.0003092928	847
bin	0.0003101472	826
bin	0.0003110016	819
bin	0.000311856	851
bin	0.0003127104	872
bin	0.0003135648	841
bin	0.0003144192	860
bin	0.0003152736	868
bin	0.000316128	918
bin	0.0003169824	959
bin	0.0003178368	994
bin	0.0003186912	954
bin	0.0003195456	953
bin	0.0003204	919
bin	0.0003212544	930
bin	0.0003221088	1007
bin	0.0003229632	963
bin	0.0003238176	1004
bin	0.000324672	964
bin	0.0003255264	893
bin	0.0003263808	920
bin	0.0003272352	965
bin	0.0003280896	891
bin	0.000328944	883
bin	0.0003297984	838
bin	0.0003306528	879
bin	0.0003315072	868
bin	0.0003323616	836
bin	0.000333216	896
bin	0.0003340704	863
bin	0.0003349248	812
bin	0.0003357792	892
bin	0.0003366336	831
bin	0.000337488	825
bin	0.0003383424	828
bin	0.0003391968	855
bin	0.0003400512	884
bin	0.0003409056	890
bin	0.00034176	941
bin	0.0003426144	885
bin	0.0003434688	924
bin	0.0003443232	865
bin	0.0003451776	851
bin	0.000346032	865
bin	0.0003468864	866
bin	0.0003477408	891
bin	0.0003485952	867
bin	0.0003494496	893
bin	0.000350304	860
bin	0.0003511584	812
bin	0.0003520128	862
bin	0.0003528672	855
bin	0.0003537216	820
bin	0.000354576	880
bin	0.0003554304	843
bin	0.0003562848	862
bin	0.0003571392	852
bin	0.0003579936	868
bin	0.000358848	852
bin	0.0003597024	858
bin	0.0003605568	852
bin	0.0003614112	858
bin	0.0003622656	894
bin	0.00036312	923
bin	0.0003639744	908
bin	0.0003648288	908
bin	0.0003656832	957
bin	0.0003665376	898
bin	0.000367392	907
bin	0.0003682464	891
bin	0.0003691008	946
bin	0.0003699552	908
bin	0.0003708096	905
bin	0.000371664	951
bin	0.0003725184	936
bin	0.0003733728	921
bin	0.0003742272	943
bin	0.0003750816	928
bin	0.000375936	898
bin	0.0003767904	881
bin	0.0003776448	905
bin	0.0003784992	924
bin	0.0003793536	889
bin	0.000380208	867
bin	0.0003810624	885
bin	0.0003819168	884
bin	0.0003827712	858
bin	0.0003836256	912
bin	0.00038448	958
bin	0.0003853344	908
bin	0.0003861888	904
bin	0.0003870432	862
bin	0.0003878976	915
bin	0.000388752	893
bin	0.0003896064	867
bin	0.0003904608	923
bin	0.0003913152	907
bin	0.0003921696	920
bin	0.000393024	933
bin	0.0003938784	950
bin	0.0003947328	972
bin	0.0003955872	991
bin	0.0003964416	944
bin	0.000397296	945
bin	0.0003981504	916
bin	0.0003990048	955
bin	0.0003998592	970
bin	0.0004007136	942
bin	0.000401568	920
bin	0.0004024224	907
bin	0.0004032768	920
bin	0.0004041312	951
bin	0.0004049856	902
bin	0.00040584	892
bin	0.0004066944	950
bin	0.0004075488	937
bin	0.0004084032	942
bin	0.0004092576	944
bin	0.000410112	972
bin	0.0004109664	962
bin	0.0004118208	969
bin	0.0004126752	929
bin	0.0004135296	923
bin	0.000414384	949
bin	0.0004152384	943
bin	0.0004160928	998
bin	0.0004169472	1060
bin	0.0004178016	938
bin	0.000418656	943
bin	0.0004195104	916
bin	0.0004203648	945
bin	0.0004212192	934
bin	0.0004220736	1007
bin	0.000422928	970
bin	0.0004237824	1023
bin	0.0004246368	999
bin	0.0004254912	972
bin	0.0004263456	953
bin	0.0004272	5057702
