version 2
run Transposition-17-20120710-08:30:03-25271
attr alg 1
attr buf 8
attr configname Transposition
attr datetime 20120710-08:30:03
attr delta 1
attr experiment Transposition
attr ext true
attr inifile altro.ini
attr iterationvars "$buf=8, $ext=true, $ofedge=1, $delta=1, $alg=1"
attr iterationvars2 "$buf=8, $ext=true, $ofedge=1, $delta=1, $alg=1, $repetition=0"
attr measurement "$buf=8, $ext=true, $ofedge=1, $delta=1, $alg=1"
attr network Torus3d_bub
attr ofedge 1
attr processid 25271
attr repetition 0
attr replication #0
attr resultdir altro-results
attr runnumber 17
attr seedset 17

scalar . 	alg 	1
scalar . 	buf 	8
scalar . 	delta 	1
scalar . 	ofedge 	1
scalar Torus3d_bub.timer 	#endTime 	0.006156310990899
scalar Torus3d_bub.timer 	#totalHops 	85912802
scalar Torus3d_bub.timer 	#totalPacks 	6291456
scalar Torus3d_bub.timer 	#totalDerouted 	2383132
scalar Torus3d_bub.timer 	#totalOutFlanked 	2383132
scalar Torus3d_bub.timer 	#totalCQRed 	0
scalar Torus3d_bub.timer 	#LB 	0.000786432
scalar Torus3d_bub.timer 	#ratio 	0.12774403391294
statistic Torus3d_bub.timer 	"Hop Times"
field count 6193152
field mean 0.00021738139858657
field stddev 0.00014839635900015
field sum 1346.2760434192
field sqrsum 0.4290377161498
field min 3.97925925e-07
field max 0.001158874931605
bin	-INF	0
bin	0	0
bin	7.12e-08	0
bin	1.424e-07	0
bin	2.136e-07	0
bin	2.848e-07	0
bin	3.56e-07	29
bin	4.272e-07	798
bin	4.984e-07	1832
bin	5.696e-07	2729
bin	6.408e-07	3544
bin	7.12e-07	4481
bin	7.832e-07	5296
bin	8.544e-07	6000
bin	9.256e-07	6624
bin	9.968e-07	7257
bin	1.068e-06	7569
bin	1.1392e-06	8199
bin	1.2104e-06	8726
bin	1.2816e-06	9648
bin	1.3528e-06	10382
bin	1.424e-06	11198
bin	1.4952e-06	11859
bin	1.5664e-06	12358
bin	1.6376e-06	12809
bin	1.7088e-06	13341
bin	1.78e-06	13228
bin	1.8512e-06	13252
bin	1.9224e-06	13098
bin	1.9936e-06	12833
bin	2.0648e-06	12412
bin	2.136e-06	11954
bin	2.2072e-06	11349
bin	2.2784e-06	10921
bin	2.3496e-06	10400
bin	2.4208e-06	9932
bin	2.492e-06	9446
bin	2.5632e-06	9079
bin	2.6344e-06	8648
bin	2.7056e-06	8164
bin	2.7768e-06	7879
bin	2.848e-06	7484
bin	2.9192e-06	7132
bin	2.9904e-06	6752
bin	3.0616e-06	6463
bin	3.1328e-06	6239
bin	3.204e-06	5837
bin	3.2752e-06	5508
bin	3.3464e-06	5364
bin	3.4176e-06	5010
bin	3.4888e-06	4938
bin	3.56e-06	4654
bin	3.6312e-06	4432
bin	3.7024e-06	4250
bin	3.7736e-06	3984
bin	3.8448e-06	3939
bin	3.916e-06	3822
bin	3.9872e-06	3736
bin	4.0584e-06	3614
bin	4.1296e-06	3560
bin	4.2008e-06	3415
bin	4.272e-06	3305
bin	4.3432e-06	3236
bin	4.4144e-06	3174
bin	4.4856e-06	3086
bin	4.5568e-06	3156
bin	4.628e-06	3033
bin	4.6992e-06	2873
bin	4.7704e-06	2834
bin	4.8416e-06	2779
bin	4.9128e-06	2683
bin	4.984e-06	2689
bin	5.0552e-06	2594
bin	5.1264e-06	2528
bin	5.1976e-06	2539
bin	5.2688e-06	2448
bin	5.34e-06	2429
bin	5.4112e-06	2426
bin	5.4824e-06	2401
bin	5.5536e-06	2348
bin	5.6248e-06	2279
bin	5.696e-06	2222
bin	5.7672e-06	2138
bin	5.8384e-06	2118
bin	5.9096e-06	2079
bin	5.9808e-06	1982
bin	6.052e-06	1929
bin	6.1232e-06	1880
bin	6.1944e-06	1906
bin	6.2656e-06	1905
bin	6.3368e-06	1731
bin	6.408e-06	1723
bin	6.4792e-06	1776
bin	6.5504e-06	1621
bin	6.6216e-06	1604
bin	6.6928e-06	1491
bin	6.764e-06	1562
bin	6.8352e-06	1517
bin	6.9064e-06	1502
bin	6.9776e-06	1442
bin	7.0488e-06	1473
bin	7.12e-06	1322
bin	7.1912e-06	1404
bin	7.2624e-06	1414
bin	7.3336e-06	1388
bin	7.4048e-06	1343
bin	7.476e-06	1365
bin	7.5472e-06	1332
bin	7.6184e-06	1342
bin	7.6896e-06	1311
bin	7.7608e-06	1315
bin	7.832e-06	1262
bin	7.9032e-06	1298
bin	7.9744e-06	1276
bin	8.0456e-06	1290
bin	8.1168e-06	1246
bin	8.188e-06	1246
bin	8.2592e-06	1205
bin	8.3304e-06	1215
bin	8.4016e-06	1259
bin	8.4728e-06	1237
bin	8.544e-06	1237
bin	8.6152e-06	1256
bin	8.6864e-06	1218
bin	8.7576e-06	1170
bin	8.8288e-06	1210
bin	8.9e-06	1181
bin	8.9712e-06	1185
bin	9.0424e-06	1198
bin	9.1136e-06	1264
bin	9.1848e-06	1214
bin	9.256e-06	1236
bin	9.3272e-06	1154
bin	9.3984e-06	1158
bin	9.4696e-06	1172
bin	9.5408e-06	1131
bin	9.612e-06	1132
bin	9.6832e-06	1154
bin	9.7544e-06	1165
bin	9.8256e-06	1119
bin	9.8968e-06	1189
bin	9.968e-06	1132
bin	1.00392e-05	1095
bin	1.01104e-05	1117
bin	1.01816e-05	1109
bin	1.02528e-05	1069
bin	1.0324e-05	1068
bin	1.03952e-05	1049
bin	1.04664e-05	1110
bin	1.05376e-05	1063
bin	1.06088e-05	1037
bin	1.068e-05	997
bin	1.07512e-05	985
bin	1.08224e-05	1007
bin	1.08936e-05	1013
bin	1.09648e-05	1002
bin	1.1036e-05	982
bin	1.11072e-05	980
bin	1.11784e-05	963
bin	1.12496e-05	979
bin	1.13208e-05	964
bin	1.1392e-05	940
bin	1.14632e-05	950
bin	1.15344e-05	921
bin	1.16056e-05	903
bin	1.16768e-05	882
bin	1.1748e-05	916
bin	1.18192e-05	842
bin	1.18904e-05	804
bin	1.19616e-05	784
bin	1.20328e-05	797
bin	1.2104e-05	754
bin	1.21752e-05	805
bin	1.22464e-05	770
bin	1.23176e-05	765
bin	1.23888e-05	767
bin	1.246e-05	763
bin	1.25312e-05	775
bin	1.26024e-05	762
bin	1.26736e-05	774
bin	1.27448e-05	809
bin	1.2816e-05	762
bin	1.28872e-05	829
bin	1.29584e-05	771
bin	1.30296e-05	779
bin	1.31008e-05	774
bin	1.3172e-05	816
bin	1.32432e-05	789
bin	1.33144e-05	733
bin	1.33856e-05	772
bin	1.34568e-05	801
bin	1.3528e-05	719
bin	1.35992e-05	716
bin	1.36704e-05	727
bin	1.37416e-05	680
bin	1.38128e-05	732
bin	1.3884e-05	751
bin	1.39552e-05	742
bin	1.40264e-05	701
bin	1.40976e-05	740
bin	1.41688e-05	752
bin	1.424e-05	725
bin	1.43112e-05	710
bin	1.43824e-05	746
bin	1.44536e-05	704
bin	1.45248e-05	704
bin	1.4596e-05	702
bin	1.46672e-05	680
bin	1.47384e-05	708
bin	1.48096e-05	722
bin	1.48808e-05	743
bin	1.4952e-05	747
bin	1.50232e-05	710
bin	1.50944e-05	739
bin	1.51656e-05	747
bin	1.52368e-05	683
bin	1.5308e-05	715
bin	1.53792e-05	690
bin	1.54504e-05	704
bin	1.55216e-05	700
bin	1.55928e-05	686
bin	1.5664e-05	706
bin	1.57352e-05	683
bin	1.58064e-05	710
bin	1.58776e-05	709
bin	1.59488e-05	668
bin	1.602e-05	654
bin	1.60912e-05	666
bin	1.61624e-05	655
bin	1.62336e-05	653
bin	1.63048e-05	652
bin	1.6376e-05	701
bin	1.64472e-05	715
bin	1.65184e-05	683
bin	1.65896e-05	679
bin	1.66608e-05	681
bin	1.6732e-05	672
bin	1.68032e-05	678
bin	1.68744e-05	691
bin	1.69456e-05	685
bin	1.70168e-05	687
bin	1.7088e-05	671
bin	1.71592e-05	669
bin	1.72304e-05	650
bin	1.73016e-05	663
bin	1.73728e-05	664
bin	1.7444e-05	671
bin	1.75152e-05	642
bin	1.75864e-05	636
bin	1.76576e-05	688
bin	1.77288e-05	660
bin	1.78e-05	644
bin	1.78712e-05	642
bin	1.79424e-05	674
bin	1.80136e-05	651
bin	1.80848e-05	639
bin	1.8156e-05	605
bin	1.82272e-05	624
bin	1.82984e-05	608
bin	1.83696e-05	619
bin	1.84408e-05	603
bin	1.8512e-05	639
bin	1.85832e-05	610
bin	1.86544e-05	600
bin	1.87256e-05	625
bin	1.87968e-05	612
bin	1.8868e-05	623
bin	1.89392e-05	592
bin	1.90104e-05	585
bin	1.90816e-05	634
bin	1.91528e-05	609
bin	1.9224e-05	608
bin	1.92952e-05	585
bin	1.93664e-05	631
bin	1.94376e-05	588
bin	1.95088e-05	623
bin	1.958e-05	638
bin	1.96512e-05	597
bin	1.97224e-05	602
bin	1.97936e-05	636
bin	1.98648e-05	592
bin	1.9936e-05	603
bin	2.00072e-05	631
bin	2.00784e-05	577
bin	2.01496e-05	609
bin	2.02208e-05	573
bin	2.0292e-05	576
bin	2.03632e-05	578
bin	2.04344e-05	568
bin	2.05056e-05	584
bin	2.05768e-05	583
bin	2.0648e-05	572
bin	2.07192e-05	570
bin	2.07904e-05	585
bin	2.08616e-05	583
bin	2.09328e-05	613
bin	2.1004e-05	587
bin	2.10752e-05	605
bin	2.11464e-05	636
bin	2.12176e-05	578
bin	2.12888e-05	566
bin	2.136e-05	575
bin	2.14312e-05	556
bin	2.15024e-05	555
bin	2.15736e-05	564
bin	2.16448e-05	567
bin	2.1716e-05	520
bin	2.17872e-05	521
bin	2.18584e-05	544
bin	2.19296e-05	546
bin	2.20008e-05	520
bin	2.2072e-05	506
bin	2.21432e-05	513
bin	2.22144e-05	479
bin	2.22856e-05	482
bin	2.23568e-05	508
bin	2.2428e-05	492
bin	2.24992e-05	486
bin	2.25704e-05	505
bin	2.26416e-05	472
bin	2.27128e-05	533
bin	2.2784e-05	484
bin	2.28552e-05	452
bin	2.29264e-05	459
bin	2.29976e-05	480
bin	2.30688e-05	457
bin	2.314e-05	467
bin	2.32112e-05	455
bin	2.32824e-05	477
bin	2.33536e-05	487
bin	2.34248e-05	496
bin	2.3496e-05	490
bin	2.35672e-05	482
bin	2.36384e-05	463
bin	2.37096e-05	469
bin	2.37808e-05	495
bin	2.3852e-05	506
bin	2.39232e-05	537
bin	2.39944e-05	501
bin	2.40656e-05	478
bin	2.41368e-05	515
bin	2.4208e-05	481
bin	2.42792e-05	507
bin	2.43504e-05	467
bin	2.44216e-05	481
bin	2.44928e-05	468
bin	2.4564e-05	512
bin	2.46352e-05	501
bin	2.47064e-05	513
bin	2.47776e-05	490
bin	2.48488e-05	482
bin	2.492e-05	496
bin	2.49912e-05	513
bin	2.50624e-05	484
bin	2.51336e-05	492
bin	2.52048e-05	451
bin	2.5276e-05	478
bin	2.53472e-05	435
bin	2.54184e-05	415
bin	2.54896e-05	451
bin	2.55608e-05	442
bin	2.5632e-05	421
bin	2.57032e-05	420
bin	2.57744e-05	414
bin	2.58456e-05	452
bin	2.59168e-05	442
bin	2.5988e-05	430
bin	2.60592e-05	466
bin	2.61304e-05	426
bin	2.62016e-05	440
bin	2.62728e-05	465
bin	2.6344e-05	470
bin	2.64152e-05	450
bin	2.64864e-05	445
bin	2.65576e-05	473
bin	2.66288e-05	471
bin	2.67e-05	466
bin	2.67712e-05	482
bin	2.68424e-05	473
bin	2.69136e-05	472
bin	2.69848e-05	466
bin	2.7056e-05	488
bin	2.71272e-05	490
bin	2.71984e-05	460
bin	2.72696e-05	445
bin	2.73408e-05	455
bin	2.7412e-05	446
bin	2.74832e-05	478
bin	2.75544e-05	455
bin	2.76256e-05	447
bin	2.76968e-05	456
bin	2.7768e-05	444
bin	2.78392e-05	428
bin	2.79104e-05	442
bin	2.79816e-05	445
bin	2.80528e-05	427
bin	2.8124e-05	483
bin	2.81952e-05	476
bin	2.82664e-05	443
bin	2.83376e-05	466
bin	2.84088e-05	489
bin	2.848e-05	477
bin	2.85512e-05	444
bin	2.86224e-05	469
bin	2.86936e-05	457
bin	2.87648e-05	446
bin	2.8836e-05	415
bin	2.89072e-05	460
bin	2.89784e-05	463
bin	2.90496e-05	440
bin	2.91208e-05	441
bin	2.9192e-05	394
bin	2.92632e-05	409
bin	2.93344e-05	399
bin	2.94056e-05	414
bin	2.94768e-05	436
bin	2.9548e-05	454
bin	2.96192e-05	446
bin	2.96904e-05	405
bin	2.97616e-05	481
bin	2.98328e-05	415
bin	2.9904e-05	456
bin	2.99752e-05	448
bin	3.00464e-05	459
bin	3.01176e-05	431
bin	3.01888e-05	457
bin	3.026e-05	486
bin	3.03312e-05	487
bin	3.04024e-05	515
bin	3.04736e-05	451
bin	3.05448e-05	450
bin	3.0616e-05	452
bin	3.06872e-05	443
bin	3.07584e-05	457
bin	3.08296e-05	460
bin	3.09008e-05	449
bin	3.0972e-05	433
bin	3.10432e-05	439
bin	3.11144e-05	419
bin	3.11856e-05	461
bin	3.12568e-05	434
bin	3.1328e-05	440
bin	3.13992e-05	443
bin	3.14704e-05	453
bin	3.15416e-05	448
bin	3.16128e-05	422
bin	3.1684e-05	416
bin	3.17552e-05	432
bin	3.18264e-05	432
bin	3.18976e-05	413
bin	3.19688e-05	409
bin	3.204e-05	429
bin	3.21112e-05	392
bin	3.21824e-05	443
bin	3.22536e-05	430
bin	3.23248e-05	431
bin	3.2396e-05	443
bin	3.24672e-05	407
bin	3.25384e-05	409
bin	3.26096e-05	368
bin	3.26808e-05	403
bin	3.2752e-05	346
bin	3.28232e-05	391
bin	3.28944e-05	382
bin	3.29656e-05	392
bin	3.30368e-05	432
bin	3.3108e-05	376
bin	3.31792e-05	358
bin	3.32504e-05	390
bin	3.33216e-05	366
bin	3.33928e-05	364
bin	3.3464e-05	361
bin	3.35352e-05	367
bin	3.36064e-05	387
bin	3.36776e-05	367
bin	3.37488e-05	356
bin	3.382e-05	375
bin	3.38912e-05	386
bin	3.39624e-05	354
bin	3.40336e-05	355
bin	3.41048e-05	363
bin	3.4176e-05	363
bin	3.42472e-05	368
bin	3.43184e-05	391
bin	3.43896e-05	432
bin	3.44608e-05	397
bin	3.4532e-05	402
bin	3.46032e-05	391
bin	3.46744e-05	408
bin	3.47456e-05	426
bin	3.48168e-05	405
bin	3.4888e-05	403
bin	3.49592e-05	394
bin	3.50304e-05	393
bin	3.51016e-05	380
bin	3.51728e-05	406
bin	3.5244e-05	383
bin	3.53152e-05	350
bin	3.53864e-05	343
bin	3.54576e-05	357
bin	3.55288e-05	387
bin	3.56e-05	5438957
statistic Torus3d_bub.timer 	"Life Times"
field count 6291456
field mean 0.0028290326295974
field stddev 0.0016555773385507
field sum 17798.734311676
field sqrsum 67.597677673091
field min 2.06665553e-07
field max 0.006061239990958
bin	-INF	0
bin	0	6443
bin	8.544e-07	8088
bin	1.7088e-06	8469
bin	2.5632e-06	9573
bin	3.4176e-06	10464
bin	4.272e-06	11391
bin	5.1264e-06	12384
bin	5.9808e-06	13323
bin	6.8352e-06	14156
bin	7.6896e-06	15085
bin	8.544e-06	15828
bin	9.3984e-06	16664
bin	1.02528e-05	10966
bin	1.11072e-05	9903
bin	1.19616e-05	10507
bin	1.2816e-05	10986
bin	1.36704e-05	11215
bin	1.45248e-05	11600
bin	1.53792e-05	11677
bin	1.62336e-05	11825
bin	1.7088e-05	11857
bin	1.79424e-05	11859
bin	1.87968e-05	11997
bin	1.96512e-05	11969
bin	2.05056e-05	12317
bin	2.136e-05	12596
bin	2.22144e-05	12502
bin	2.30688e-05	12799
bin	2.39232e-05	13266
bin	2.47776e-05	13439
bin	2.5632e-05	13322
bin	2.64864e-05	13076
bin	2.73408e-05	12436
bin	2.81952e-05	11650
bin	2.90496e-05	10921
bin	2.9904e-05	10317
bin	3.07584e-05	9648
bin	3.16128e-05	8702
bin	3.24672e-05	7689
bin	3.33216e-05	6980
bin	3.4176e-05	6061
bin	3.50304e-05	5487
bin	3.58848e-05	4950
bin	3.67392e-05	4514
bin	3.75936e-05	4130
bin	3.8448e-05	3937
bin	3.93024e-05	3719
bin	4.01568e-05	3526
bin	4.10112e-05	3503
bin	4.18656e-05	3444
bin	4.272e-05	3339
bin	4.35744e-05	3288
bin	4.44288e-05	3218
bin	4.52832e-05	3374
bin	4.61376e-05	3390
bin	4.6992e-05	3299
bin	4.78464e-05	3278
bin	4.87008e-05	3221
bin	4.95552e-05	3307
bin	5.04096e-05	3275
bin	5.1264e-05	3135
bin	5.21184e-05	3154
bin	5.29728e-05	2985
bin	5.38272e-05	2943
bin	5.46816e-05	2857
bin	5.5536e-05	2707
bin	5.63904e-05	2535
bin	5.72448e-05	2427
bin	5.80992e-05	2300
bin	5.89536e-05	2236
bin	5.9808e-05	2093
bin	6.06624e-05	2092
bin	6.15168e-05	1957
bin	6.23712e-05	1967
bin	6.32256e-05	1962
bin	6.408e-05	1963
bin	6.49344e-05	1886
bin	6.57888e-05	1896
bin	6.66432e-05	1843
bin	6.74976e-05	1876
bin	6.8352e-05	1886
bin	6.92064e-05	1891
bin	7.00608e-05	1938
bin	7.09152e-05	1953
bin	7.17696e-05	1907
bin	7.2624e-05	2011
bin	7.34784e-05	2015
bin	7.43328e-05	2066
bin	7.51872e-05	2060
bin	7.60416e-05	2024
bin	7.6896e-05	2013
bin	7.77504e-05	1980
bin	7.86048e-05	1925
bin	7.94592e-05	1824
bin	8.03136e-05	1780
bin	8.1168e-05	1756
bin	8.20224e-05	1725
bin	8.28768e-05	1585
bin	8.37312e-05	1568
bin	8.45856e-05	1508
bin	8.544e-05	1432
bin	8.62944e-05	1408
bin	8.71488e-05	1380
bin	8.80032e-05	1364
bin	8.88576e-05	1379
bin	8.9712e-05	1443
bin	9.05664e-05	1266
bin	9.14208e-05	1324
bin	9.22752e-05	1367
bin	9.31296e-05	1331
bin	9.3984e-05	1440
bin	9.48384e-05	1438
bin	9.56928e-05	1400
bin	9.65472e-05	1455
bin	9.74016e-05	1463
bin	9.8256e-05	1483
bin	9.91104e-05	1510
bin	9.99648e-05	1513
bin	0.0001008192	1532
bin	0.0001016736	1479
bin	0.000102528	1379
bin	0.0001033824	1473
bin	0.0001042368	1474
bin	0.0001050912	1405
bin	0.0001059456	1284
bin	0.0001068	1297
bin	0.0001076544	1180
bin	0.0001085088	1160
bin	0.0001093632	1173
bin	0.0001102176	1075
bin	0.000111072	1071
bin	0.0001119264	996
bin	0.0001127808	1039
bin	0.0001136352	982
bin	0.0001144896	949
bin	0.000115344	965
bin	0.0001161984	1067
bin	0.0001170528	1026
bin	0.0001179072	1007
bin	0.0001187616	1082
bin	0.000119616	1097
bin	0.0001204704	1110
bin	0.0001213248	1091
bin	0.0001221792	1148
bin	0.0001230336	1140
bin	0.000123888	1093
bin	0.0001247424	1063
bin	0.0001255968	1048
bin	0.0001264512	1064
bin	0.0001273056	1052
bin	0.00012816	1011
bin	0.0001290144	1022
bin	0.0001298688	949
bin	0.0001307232	954
bin	0.0001315776	915
bin	0.000132432	932
bin	0.0001332864	859
bin	0.0001341408	890
bin	0.0001349952	861
bin	0.0001358496	844
bin	0.000136704	822
bin	0.0001375584	770
bin	0.0001384128	844
bin	0.0001392672	870
bin	0.0001401216	834
bin	0.000140976	840
bin	0.0001418304	900
bin	0.0001426848	841
bin	0.0001435392	887
bin	0.0001443936	894
bin	0.000145248	874
bin	0.0001461024	881
bin	0.0001469568	919
bin	0.0001478112	931
bin	0.0001486656	934
bin	0.00014952	904
bin	0.0001503744	912
bin	0.0001512288	923
bin	0.0001520832	917
bin	0.0001529376	928
bin	0.000153792	840
bin	0.0001546464	837
bin	0.0001555008	820
bin	0.0001563552	807
bin	0.0001572096	762
bin	0.000158064	773
bin	0.0001589184	763
bin	0.0001597728	688
bin	0.0001606272	682
bin	0.0001614816	676
bin	0.000162336	685
bin	0.0001631904	692
bin	0.0001640448	756
bin	0.0001648992	731
bin	0.0001657536	709
bin	0.000166608	733
bin	0.0001674624	714
bin	0.0001683168	762
bin	0.0001691712	807
bin	0.0001700256	758
bin	0.00017088	767
bin	0.0001717344	761
bin	0.0001725888	801
bin	0.0001734432	721
bin	0.0001742976	756
bin	0.000175152	751
bin	0.0001760064	711
bin	0.0001768608	726
bin	0.0001777152	681
bin	0.0001785696	709
bin	0.000179424	644
bin	0.0001802784	675
bin	0.0001811328	647
bin	0.0001819872	618
bin	0.0001828416	586
bin	0.000183696	612
bin	0.0001845504	555
bin	0.0001854048	554
bin	0.0001862592	532
bin	0.0001871136	585
bin	0.000187968	555
bin	0.0001888224	557
bin	0.0001896768	583
bin	0.0001905312	587
bin	0.0001913856	639
bin	0.00019224	582
bin	0.0001930944	570
bin	0.0001939488	583
bin	0.0001948032	569
bin	0.0001956576	626
bin	0.000196512	605
bin	0.0001973664	640
bin	0.0001982208	626
bin	0.0001990752	639
bin	0.0001999296	621
bin	0.000200784	634
bin	0.0002016384	601
bin	0.0002024928	552
bin	0.0002033472	559
bin	0.0002042016	543
bin	0.000205056	488
bin	0.0002059104	533
bin	0.0002067648	491
bin	0.0002076192	467
bin	0.0002084736	491
bin	0.000209328	449
bin	0.0002101824	478
bin	0.0002110368	462
bin	0.0002118912	473
bin	0.0002127456	468
bin	0.0002136	487
bin	0.0002144544	482
bin	0.0002153088	468
bin	0.0002161632	474
bin	0.0002170176	498
bin	0.000217872	516
bin	0.0002187264	501
bin	0.0002195808	521
bin	0.0002204352	507
bin	0.0002212896	476
bin	0.000222144	487
bin	0.0002229984	509
bin	0.0002238528	496
bin	0.0002247072	537
bin	0.0002255616	539
bin	0.000226416	524
bin	0.0002272704	510
bin	0.0002281248	524
bin	0.0002289792	475
bin	0.0002298336	499
bin	0.000230688	509
bin	0.0002315424	498
bin	0.0002323968	466
bin	0.0002332512	484
bin	0.0002341056	468
bin	0.00023496	475
bin	0.0002358144	507
bin	0.0002366688	468
bin	0.0002375232	490
bin	0.0002383776	515
bin	0.000239232	530
bin	0.0002400864	539
bin	0.0002409408	544
bin	0.0002417952	551
bin	0.0002426496	544
bin	0.000243504	552
bin	0.0002443584	561
bin	0.0002452128	584
bin	0.0002460672	602
bin	0.0002469216	593
bin	0.000247776	565
bin	0.0002486304	587
bin	0.0002494848	575
bin	0.0002503392	588
bin	0.0002511936	603
bin	0.000252048	571
bin	0.0002529024	597
bin	0.0002537568	570
bin	0.0002546112	549
bin	0.0002554656	535
bin	0.00025632	505
bin	0.0002571744	523
bin	0.0002580288	510
bin	0.0002588832	520
bin	0.0002597376	511
bin	0.000260592	487
bin	0.0002614464	502
bin	0.0002623008	524
bin	0.0002631552	555
bin	0.0002640096	540
bin	0.000264864	527
bin	0.0002657184	539
bin	0.0002665728	564
bin	0.0002674272	539
bin	0.0002682816	557
bin	0.000269136	570
bin	0.0002699904	560
bin	0.0002708448	531
bin	0.0002716992	528
bin	0.0002725536	539
bin	0.000273408	555
bin	0.0002742624	580
bin	0.0002751168	594
bin	0.0002759712	552
bin	0.0002768256	559
bin	0.00027768	544
bin	0.0002785344	523
bin	0.0002793888	505
bin	0.0002802432	485
bin	0.0002810976	504
bin	0.000281952	462
bin	0.0002828064	514
bin	0.0002836608	469
bin	0.0002845152	499
bin	0.0002853696	476
bin	0.000286224	468
bin	0.0002870784	504
bin	0.0002879328	521
bin	0.0002887872	494
bin	0.0002896416	516
bin	0.000290496	527
bin	0.0002913504	515
bin	0.0002922048	473
bin	0.0002930592	496
bin	0.0002939136	509
bin	0.000294768	518
bin	0.0002956224	548
bin	0.0002964768	555
bin	0.0002973312	509
bin	0.0002981856	533
bin	0.00029904	547
bin	0.0002998944	563
bin	0.0003007488	558
bin	0.0003016032	528
bin	0.0003024576	554
bin	0.000303312	572
bin	0.0003041664	586
bin	0.0003050208	563
bin	0.0003058752	559
bin	0.0003067296	564
bin	0.000307584	534
bin	0.0003084384	534
bin	0.0003092928	518
bin	0.0003101472	501
bin	0.0003110016	505
bin	0.000311856	471
bin	0.0003127104	481
bin	0.0003135648	502
bin	0.0003144192	510
bin	0.0003152736	554
bin	0.000316128	518
bin	0.0003169824	533
bin	0.0003178368	534
bin	0.0003186912	534
bin	0.0003195456	562
bin	0.0003204	545
bin	0.0003212544	517
bin	0.0003221088	568
bin	0.0003229632	543
bin	0.0003238176	572
bin	0.000324672	522
bin	0.0003255264	526
bin	0.0003263808	511
bin	0.0003272352	479
bin	0.0003280896	490
bin	0.000328944	489
bin	0.0003297984	450
bin	0.0003306528	451
bin	0.0003315072	438
bin	0.0003323616	476
bin	0.000333216	486
bin	0.0003340704	426
bin	0.0003349248	464
bin	0.0003357792	489
bin	0.0003366336	462
bin	0.000337488	457
bin	0.0003383424	481
bin	0.0003391968	456
bin	0.0003400512	443
bin	0.0003409056	500
bin	0.00034176	486
bin	0.0003426144	489
bin	0.0003434688	488
bin	0.0003443232	478
bin	0.0003451776	491
bin	0.000346032	484
bin	0.0003468864	506
bin	0.0003477408	498
bin	0.0003485952	463
bin	0.0003494496	494
bin	0.000350304	454
bin	0.0003511584	472
bin	0.0003520128	476
bin	0.0003528672	476
bin	0.0003537216	455
bin	0.000354576	451
bin	0.0003554304	445
bin	0.0003562848	422
bin	0.0003571392	451
bin	0.0003579936	404
bin	0.000358848	389
bin	0.0003597024	392
bin	0.0003605568	367
bin	0.0003614112	397
bin	0.0003622656	415
bin	0.00036312	420
bin	0.0003639744	420
bin	0.0003648288	433
bin	0.0003656832	426
bin	0.0003665376	419
bin	0.000367392	431
bin	0.0003682464	445
bin	0.0003691008	421
bin	0.0003699552	421
bin	0.0003708096	442
bin	0.000371664	426
bin	0.0003725184	448
bin	0.0003733728	436
bin	0.0003742272	413
bin	0.0003750816	431
bin	0.000375936	445
bin	0.0003767904	437
bin	0.0003776448	430
bin	0.0003784992	467
bin	0.0003793536	465
bin	0.000380208	454
bin	0.0003810624	448
bin	0.0003819168	383
bin	0.0003827712	408
bin	0.0003836256	386
bin	0.00038448	434
bin	0.0003853344	405
bin	0.0003861888	437
bin	0.0003870432	420
bin	0.0003878976	440
bin	0.000388752	475
bin	0.0003896064	464
bin	0.0003904608	457
bin	0.0003913152	427
bin	0.0003921696	434
bin	0.000393024	414
bin	0.0003938784	451
bin	0.0003947328	492
bin	0.0003955872	466
bin	0.0003964416	460
bin	0.000397296	455
bin	0.0003981504	448
bin	0.0003990048	424
bin	0.0003998592	422
bin	0.0004007136	443
bin	0.000401568	461
bin	0.0004024224	454
bin	0.0004032768	425
bin	0.0004041312	401
bin	0.0004049856	391
bin	0.00040584	376
bin	0.0004066944	375
bin	0.0004075488	407
bin	0.0004084032	396
bin	0.0004092576	397
bin	0.000410112	395
bin	0.0004109664	419
bin	0.0004118208	410
bin	0.0004126752	423
bin	0.0004135296	428
bin	0.000414384	413
bin	0.0004152384	438
bin	0.0004160928	409
bin	0.0004169472	410
bin	0.0004178016	411
bin	0.000418656	423
bin	0.0004195104	365
bin	0.0004203648	409
bin	0.0004212192	408
bin	0.0004220736	382
bin	0.000422928	369
bin	0.0004237824	367
bin	0.0004246368	390
bin	0.0004254912	340
bin	0.0004263456	364
bin	0.0004272	5415725
