version 2
run Transposition-39-20120710-11:24:13-25399
attr alg 3
attr buf 8
attr configname Transposition
attr datetime 20120710-11:24:13
attr delta 1
attr experiment Transposition
attr ext true
attr inifile altro.ini
attr iterationvars "$buf=8, $ext=true, $ofedge=2, $delta=1, $alg=3"
attr iterationvars2 "$buf=8, $ext=true, $ofedge=2, $delta=1, $alg=3, $repetition=0"
attr measurement "$buf=8, $ext=true, $ofedge=2, $delta=1, $alg=3"
attr network Torus3d_bub
attr ofedge 2
attr processid 25399
attr repetition 0
attr replication #0
attr resultdir altro-results
attr runnumber 39
attr seedset 39

scalar . 	alg 	3
scalar . 	buf 	8
scalar . 	delta 	1
scalar . 	ofedge 	2
scalar Torus3d_bub.timer 	#endTime 	0.004394234993642
scalar Torus3d_bub.timer 	#totalHops 	86410675
scalar Torus3d_bub.timer 	#totalPacks 	6291456
scalar Torus3d_bub.timer 	#totalDerouted 	1967734
scalar Torus3d_bub.timer 	#totalOutFlanked 	1179689
scalar Torus3d_bub.timer 	#totalCQRed 	788045
scalar Torus3d_bub.timer 	#LB 	0.000786432
scalar Torus3d_bub.timer 	#ratio 	0.17896903582487
statistic Torus3d_bub.timer 	"Hop Times"
field count 6193152
field mean 0.00011488883262577
field stddev 7.2204679417868e-05
field sum 711.52400355393
field sqrsum 0.11403425230928
field min 4.01999999e-07
field max 0.000707858066666
bin	-INF	0
bin	0	0
bin	7.12e-08	0
bin	1.424e-07	0
bin	2.136e-07	0
bin	2.848e-07	0
bin	3.56e-07	22
bin	4.272e-07	667
bin	4.984e-07	1345
bin	5.696e-07	2090
bin	6.408e-07	2938
bin	7.12e-07	3741
bin	7.832e-07	4462
bin	8.544e-07	5428
bin	9.256e-07	6022
bin	9.968e-07	6984
bin	1.068e-06	7672
bin	1.1392e-06	8548
bin	1.2104e-06	9445
bin	1.2816e-06	10474
bin	1.3528e-06	11677
bin	1.424e-06	12700
bin	1.4952e-06	13910
bin	1.5664e-06	14900
bin	1.6376e-06	15662
bin	1.7088e-06	16438
bin	1.78e-06	16871
bin	1.8512e-06	17012
bin	1.9224e-06	17038
bin	1.9936e-06	16859
bin	2.0648e-06	16781
bin	2.136e-06	16358
bin	2.2072e-06	15801
bin	2.2784e-06	15603
bin	2.3496e-06	14859
bin	2.4208e-06	14366
bin	2.492e-06	13847
bin	2.5632e-06	13361
bin	2.6344e-06	12862
bin	2.7056e-06	12363
bin	2.7768e-06	11858
bin	2.848e-06	11408
bin	2.9192e-06	10989
bin	2.9904e-06	10427
bin	3.0616e-06	10172
bin	3.1328e-06	9759
bin	3.204e-06	9188
bin	3.2752e-06	8733
bin	3.3464e-06	8365
bin	3.4176e-06	7907
bin	3.4888e-06	7785
bin	3.56e-06	7282
bin	3.6312e-06	7000
bin	3.7024e-06	6744
bin	3.7736e-06	6418
bin	3.8448e-06	6104
bin	3.916e-06	5812
bin	3.9872e-06	5779
bin	4.0584e-06	5644
bin	4.1296e-06	5558
bin	4.2008e-06	5400
bin	4.272e-06	5202
bin	4.3432e-06	5102
bin	4.4144e-06	4890
bin	4.4856e-06	4993
bin	4.5568e-06	4867
bin	4.628e-06	4767
bin	4.6992e-06	4696
bin	4.7704e-06	4552
bin	4.8416e-06	4377
bin	4.9128e-06	4373
bin	4.984e-06	4302
bin	5.0552e-06	4212
bin	5.1264e-06	4095
bin	5.1976e-06	4025
bin	5.2688e-06	4000
bin	5.34e-06	3878
bin	5.4112e-06	3919
bin	5.4824e-06	3746
bin	5.5536e-06	3676
bin	5.6248e-06	3656
bin	5.696e-06	3619
bin	5.7672e-06	3479
bin	5.8384e-06	3429
bin	5.9096e-06	3323
bin	5.9808e-06	3274
bin	6.052e-06	3227
bin	6.1232e-06	3149
bin	6.1944e-06	3006
bin	6.2656e-06	3051
bin	6.3368e-06	2941
bin	6.408e-06	2853
bin	6.4792e-06	2844
bin	6.5504e-06	2664
bin	6.6216e-06	2632
bin	6.6928e-06	2500
bin	6.764e-06	2557
bin	6.8352e-06	2570
bin	6.9064e-06	2509
bin	6.9776e-06	2353
bin	7.0488e-06	2376
bin	7.12e-06	2376
bin	7.1912e-06	2401
bin	7.2624e-06	2398
bin	7.3336e-06	2406
bin	7.4048e-06	2371
bin	7.476e-06	2405
bin	7.5472e-06	2471
bin	7.6184e-06	2365
bin	7.6896e-06	2402
bin	7.7608e-06	2303
bin	7.832e-06	2254
bin	7.9032e-06	2303
bin	7.9744e-06	2298
bin	8.0456e-06	2204
bin	8.1168e-06	2205
bin	8.188e-06	2163
bin	8.2592e-06	2160
bin	8.3304e-06	2129
bin	8.4016e-06	2097
bin	8.4728e-06	2075
bin	8.544e-06	2046
bin	8.6152e-06	2001
bin	8.6864e-06	1983
bin	8.7576e-06	1977
bin	8.8288e-06	1956
bin	8.9e-06	2010
bin	8.9712e-06	2058
bin	9.0424e-06	1924
bin	9.1136e-06	1950
bin	9.1848e-06	1919
bin	9.256e-06	1968
bin	9.3272e-06	1910
bin	9.3984e-06	1999
bin	9.4696e-06	1924
bin	9.5408e-06	1925
bin	9.612e-06	1936
bin	9.6832e-06	1964
bin	9.7544e-06	1958
bin	9.8256e-06	1969
bin	9.8968e-06	2008
bin	9.968e-06	2014
bin	1.00392e-05	1922
bin	1.01104e-05	1906
bin	1.01816e-05	1887
bin	1.02528e-05	1813
bin	1.0324e-05	1790
bin	1.03952e-05	1820
bin	1.04664e-05	1788
bin	1.05376e-05	1806
bin	1.06088e-05	1831
bin	1.068e-05	1744
bin	1.07512e-05	1771
bin	1.08224e-05	1828
bin	1.08936e-05	1776
bin	1.09648e-05	1782
bin	1.1036e-05	1763
bin	1.11072e-05	1722
bin	1.11784e-05	1690
bin	1.12496e-05	1704
bin	1.13208e-05	1610
bin	1.1392e-05	1601
bin	1.14632e-05	1565
bin	1.15344e-05	1555
bin	1.16056e-05	1550
bin	1.16768e-05	1539
bin	1.1748e-05	1557
bin	1.18192e-05	1574
bin	1.18904e-05	1550
bin	1.19616e-05	1619
bin	1.20328e-05	1568
bin	1.2104e-05	1590
bin	1.21752e-05	1508
bin	1.22464e-05	1583
bin	1.23176e-05	1496
bin	1.23888e-05	1492
bin	1.246e-05	1537
bin	1.25312e-05	1514
bin	1.26024e-05	1577
bin	1.26736e-05	1531
bin	1.27448e-05	1551
bin	1.2816e-05	1541
bin	1.28872e-05	1455
bin	1.29584e-05	1480
bin	1.30296e-05	1547
bin	1.31008e-05	1468
bin	1.3172e-05	1478
bin	1.32432e-05	1507
bin	1.33144e-05	1418
bin	1.33856e-05	1480
bin	1.34568e-05	1406
bin	1.3528e-05	1416
bin	1.35992e-05	1495
bin	1.36704e-05	1396
bin	1.37416e-05	1460
bin	1.38128e-05	1447
bin	1.3884e-05	1358
bin	1.39552e-05	1434
bin	1.40264e-05	1386
bin	1.40976e-05	1445
bin	1.41688e-05	1353
bin	1.424e-05	1423
bin	1.43112e-05	1401
bin	1.43824e-05	1432
bin	1.44536e-05	1458
bin	1.45248e-05	1394
bin	1.4596e-05	1374
bin	1.46672e-05	1402
bin	1.47384e-05	1426
bin	1.48096e-05	1408
bin	1.48808e-05	1496
bin	1.4952e-05	1458
bin	1.50232e-05	1448
bin	1.50944e-05	1452
bin	1.51656e-05	1442
bin	1.52368e-05	1460
bin	1.5308e-05	1403
bin	1.53792e-05	1422
bin	1.54504e-05	1414
bin	1.55216e-05	1395
bin	1.55928e-05	1421
bin	1.5664e-05	1385
bin	1.57352e-05	1326
bin	1.58064e-05	1335
bin	1.58776e-05	1356
bin	1.59488e-05	1327
bin	1.602e-05	1290
bin	1.60912e-05	1278
bin	1.61624e-05	1165
bin	1.62336e-05	1201
bin	1.63048e-05	1219
bin	1.6376e-05	1173
bin	1.64472e-05	1189
bin	1.65184e-05	1186
bin	1.65896e-05	1155
bin	1.66608e-05	1177
bin	1.6732e-05	1203
bin	1.68032e-05	1235
bin	1.68744e-05	1233
bin	1.69456e-05	1233
bin	1.70168e-05	1254
bin	1.7088e-05	1228
bin	1.71592e-05	1186
bin	1.72304e-05	1199
bin	1.73016e-05	1258
bin	1.73728e-05	1237
bin	1.7444e-05	1238
bin	1.75152e-05	1215
bin	1.75864e-05	1254
bin	1.76576e-05	1251
bin	1.77288e-05	1254
bin	1.78e-05	1322
bin	1.78712e-05	1297
bin	1.79424e-05	1291
bin	1.80136e-05	1281
bin	1.80848e-05	1261
bin	1.8156e-05	1267
bin	1.82272e-05	1194
bin	1.82984e-05	1197
bin	1.83696e-05	1185
bin	1.84408e-05	1177
bin	1.8512e-05	1170
bin	1.85832e-05	1212
bin	1.86544e-05	1138
bin	1.87256e-05	1197
bin	1.87968e-05	1199
bin	1.8868e-05	1118
bin	1.89392e-05	1178
bin	1.90104e-05	1126
bin	1.90816e-05	1217
bin	1.91528e-05	1166
bin	1.9224e-05	1166
bin	1.92952e-05	1202
bin	1.93664e-05	1181
bin	1.94376e-05	1169
bin	1.95088e-05	1147
bin	1.958e-05	1169
bin	1.96512e-05	1114
bin	1.97224e-05	1087
bin	1.97936e-05	1108
bin	1.98648e-05	1124
bin	1.9936e-05	1127
bin	2.00072e-05	1127
bin	2.00784e-05	1146
bin	2.01496e-05	1108
bin	2.02208e-05	1116
bin	2.0292e-05	1110
bin	2.03632e-05	1116
bin	2.04344e-05	1087
bin	2.05056e-05	1076
bin	2.05768e-05	1103
bin	2.0648e-05	1146
bin	2.07192e-05	1085
bin	2.07904e-05	1030
bin	2.08616e-05	1063
bin	2.09328e-05	1004
bin	2.1004e-05	991
bin	2.10752e-05	1011
bin	2.11464e-05	1000
bin	2.12176e-05	998
bin	2.12888e-05	1014
bin	2.136e-05	978
bin	2.14312e-05	1019
bin	2.15024e-05	945
bin	2.15736e-05	999
bin	2.16448e-05	1001
bin	2.1716e-05	959
bin	2.17872e-05	979
bin	2.18584e-05	1018
bin	2.19296e-05	964
bin	2.20008e-05	955
bin	2.2072e-05	948
bin	2.21432e-05	1002
bin	2.22144e-05	976
bin	2.22856e-05	1023
bin	2.23568e-05	1009
bin	2.2428e-05	1019
bin	2.24992e-05	1025
bin	2.25704e-05	1007
bin	2.26416e-05	966
bin	2.27128e-05	1038
bin	2.2784e-05	983
bin	2.28552e-05	1021
bin	2.29264e-05	1014
bin	2.29976e-05	1049
bin	2.30688e-05	1058
bin	2.314e-05	1039
bin	2.32112e-05	991
bin	2.32824e-05	1003
bin	2.33536e-05	975
bin	2.34248e-05	933
bin	2.3496e-05	970
bin	2.35672e-05	974
bin	2.36384e-05	981
bin	2.37096e-05	930
bin	2.37808e-05	947
bin	2.3852e-05	962
bin	2.39232e-05	963
bin	2.39944e-05	978
bin	2.40656e-05	927
bin	2.41368e-05	1036
bin	2.4208e-05	997
bin	2.42792e-05	1053
bin	2.43504e-05	993
bin	2.44216e-05	1009
bin	2.44928e-05	1023
bin	2.4564e-05	1053
bin	2.46352e-05	1082
bin	2.47064e-05	1089
bin	2.47776e-05	1097
bin	2.48488e-05	1068
bin	2.492e-05	1065
bin	2.49912e-05	1010
bin	2.50624e-05	981
bin	2.51336e-05	1073
bin	2.52048e-05	1047
bin	2.5276e-05	1013
bin	2.53472e-05	1001
bin	2.54184e-05	972
bin	2.54896e-05	967
bin	2.55608e-05	996
bin	2.5632e-05	984
bin	2.57032e-05	951
bin	2.57744e-05	933
bin	2.58456e-05	926
bin	2.59168e-05	942
bin	2.5988e-05	929
bin	2.60592e-05	908
bin	2.61304e-05	928
bin	2.62016e-05	951
bin	2.62728e-05	966
bin	2.6344e-05	1031
bin	2.64152e-05	1002
bin	2.64864e-05	1031
bin	2.65576e-05	1045
bin	2.66288e-05	1019
bin	2.67e-05	1054
bin	2.67712e-05	1055
bin	2.68424e-05	1013
bin	2.69136e-05	1064
bin	2.69848e-05	1008
bin	2.7056e-05	1032
bin	2.71272e-05	1032
bin	2.71984e-05	1015
bin	2.72696e-05	1025
bin	2.73408e-05	1016
bin	2.7412e-05	1032
bin	2.74832e-05	1018
bin	2.75544e-05	1066
bin	2.76256e-05	1014
bin	2.76968e-05	1060
bin	2.7768e-05	1034
bin	2.78392e-05	1066
bin	2.79104e-05	1083
bin	2.79816e-05	1038
bin	2.80528e-05	1030
bin	2.8124e-05	990
bin	2.81952e-05	1021
bin	2.82664e-05	1055
bin	2.83376e-05	988
bin	2.84088e-05	967
bin	2.848e-05	1064
bin	2.85512e-05	1008
bin	2.86224e-05	1019
bin	2.86936e-05	1110
bin	2.87648e-05	1013
bin	2.8836e-05	1005
bin	2.89072e-05	1018
bin	2.89784e-05	1056
bin	2.90496e-05	1056
bin	2.91208e-05	1064
bin	2.9192e-05	1056
bin	2.92632e-05	990
bin	2.93344e-05	952
bin	2.94056e-05	982
bin	2.94768e-05	955
bin	2.9548e-05	979
bin	2.96192e-05	894
bin	2.96904e-05	961
bin	2.97616e-05	975
bin	2.98328e-05	928
bin	2.9904e-05	890
bin	2.99752e-05	958
bin	3.00464e-05	962
bin	3.01176e-05	944
bin	3.01888e-05	950
bin	3.026e-05	939
bin	3.03312e-05	977
bin	3.04024e-05	864
bin	3.04736e-05	895
bin	3.05448e-05	921
bin	3.0616e-05	876
bin	3.06872e-05	902
bin	3.07584e-05	927
bin	3.08296e-05	881
bin	3.09008e-05	844
bin	3.0972e-05	883
bin	3.10432e-05	858
bin	3.11144e-05	885
bin	3.11856e-05	895
bin	3.12568e-05	838
bin	3.1328e-05	878
bin	3.13992e-05	908
bin	3.14704e-05	913
bin	3.15416e-05	901
bin	3.16128e-05	930
bin	3.1684e-05	924
bin	3.17552e-05	887
bin	3.18264e-05	914
bin	3.18976e-05	909
bin	3.19688e-05	882
bin	3.204e-05	887
bin	3.21112e-05	906
bin	3.21824e-05	867
bin	3.22536e-05	927
bin	3.23248e-05	886
bin	3.2396e-05	917
bin	3.24672e-05	869
bin	3.25384e-05	894
bin	3.26096e-05	928
bin	3.26808e-05	854
bin	3.2752e-05	881
bin	3.28232e-05	863
bin	3.28944e-05	943
bin	3.29656e-05	974
bin	3.30368e-05	937
bin	3.3108e-05	936
bin	3.31792e-05	907
bin	3.32504e-05	912
bin	3.33216e-05	876
bin	3.33928e-05	909
bin	3.3464e-05	921
bin	3.35352e-05	909
bin	3.36064e-05	908
bin	3.36776e-05	919
bin	3.37488e-05	914
bin	3.382e-05	961
bin	3.38912e-05	966
bin	3.39624e-05	948
bin	3.40336e-05	988
bin	3.41048e-05	975
bin	3.4176e-05	926
bin	3.42472e-05	943
bin	3.43184e-05	959
bin	3.43896e-05	998
bin	3.44608e-05	1000
bin	3.4532e-05	988
bin	3.46032e-05	934
bin	3.46744e-05	958
bin	3.47456e-05	969
bin	3.48168e-05	950
bin	3.4888e-05	995
bin	3.49592e-05	978
bin	3.50304e-05	939
bin	3.51016e-05	929
bin	3.51728e-05	939
bin	3.5244e-05	941
bin	3.53152e-05	956
bin	3.53864e-05	979
bin	3.54576e-05	958
bin	3.55288e-05	1025
bin	3.56e-05	5011537
statistic Torus3d_bub.timer 	"Life Times"
field count 6291456
field mean 0.0016006519318708
field stddev 0.0010676997299372
field sum 10070.43120068
field sqrsum 23.291405097697
field min 2.06665553e-07
field max 0.004311523993642
bin	-INF	0
bin	0	6528
bin	8.544e-07	8192
bin	1.7088e-06	8500
bin	2.5632e-06	9025
bin	3.4176e-06	9611
bin	4.272e-06	10463
bin	5.1264e-06	11497
bin	5.9808e-06	12546
bin	6.8352e-06	13744
bin	7.6896e-06	14800
bin	8.544e-06	16013
bin	9.3984e-06	17254
bin	1.02528e-05	11843
bin	1.11072e-05	11119
bin	1.19616e-05	11915
bin	1.2816e-05	12374
bin	1.36704e-05	13060
bin	1.45248e-05	13537
bin	1.53792e-05	14143
bin	1.62336e-05	14378
bin	1.7088e-05	15085
bin	1.79424e-05	15250
bin	1.87968e-05	15386
bin	1.96512e-05	15613
bin	2.05056e-05	15793
bin	2.136e-05	15969
bin	2.22144e-05	16242
bin	2.30688e-05	16616
bin	2.39232e-05	16685
bin	2.47776e-05	17438
bin	2.5632e-05	17668
bin	2.64864e-05	17713
bin	2.73408e-05	17183
bin	2.81952e-05	16762
bin	2.90496e-05	16030
bin	2.9904e-05	15153
bin	3.07584e-05	14097
bin	3.16128e-05	13129
bin	3.24672e-05	12010
bin	3.33216e-05	11000
bin	3.4176e-05	10001
bin	3.50304e-05	8872
bin	3.58848e-05	8095
bin	3.67392e-05	7511
bin	3.75936e-05	7048
bin	3.8448e-05	6657
bin	3.93024e-05	6412
bin	4.01568e-05	6270
bin	4.10112e-05	6003
bin	4.18656e-05	5725
bin	4.272e-05	5678
bin	4.35744e-05	5651
bin	4.44288e-05	5464
bin	4.52832e-05	5555
bin	4.61376e-05	5601
bin	4.6992e-05	5641
bin	4.78464e-05	5450
bin	4.87008e-05	5319
bin	4.95552e-05	5468
bin	5.04096e-05	5347
bin	5.1264e-05	5238
bin	5.21184e-05	5176
bin	5.29728e-05	4924
bin	5.38272e-05	4852
bin	5.46816e-05	4747
bin	5.5536e-05	4489
bin	5.63904e-05	4335
bin	5.72448e-05	3942
bin	5.80992e-05	3830
bin	5.89536e-05	3652
bin	5.9808e-05	3535
bin	6.06624e-05	3472
bin	6.15168e-05	3360
bin	6.23712e-05	3215
bin	6.32256e-05	3192
bin	6.408e-05	3125
bin	6.49344e-05	3123
bin	6.57888e-05	3083
bin	6.66432e-05	2997
bin	6.74976e-05	3022
bin	6.8352e-05	3103
bin	6.92064e-05	3042
bin	7.00608e-05	2998
bin	7.09152e-05	3029
bin	7.17696e-05	3121
bin	7.2624e-05	3139
bin	7.34784e-05	3130
bin	7.43328e-05	3152
bin	7.51872e-05	3248
bin	7.60416e-05	3224
bin	7.6896e-05	3138
bin	7.77504e-05	3128
bin	7.86048e-05	2991
bin	7.94592e-05	3026
bin	8.03136e-05	2874
bin	8.1168e-05	2859
bin	8.20224e-05	2747
bin	8.28768e-05	2545
bin	8.37312e-05	2537
bin	8.45856e-05	2425
bin	8.544e-05	2341
bin	8.62944e-05	2225
bin	8.71488e-05	2198
bin	8.80032e-05	2173
bin	8.88576e-05	2189
bin	8.9712e-05	2191
bin	9.05664e-05	2212
bin	9.14208e-05	2107
bin	9.22752e-05	2149
bin	9.31296e-05	2190
bin	9.3984e-05	2246
bin	9.48384e-05	2280
bin	9.56928e-05	2278
bin	9.65472e-05	2345
bin	9.74016e-05	2387
bin	9.8256e-05	2345
bin	9.91104e-05	2333
bin	9.99648e-05	2295
bin	0.0001008192	2268
bin	0.0001016736	2265
bin	0.000102528	2274
bin	0.0001033824	2249
bin	0.0001042368	2197
bin	0.0001050912	2106
bin	0.0001059456	2092
bin	0.0001068	2029
bin	0.0001076544	1988
bin	0.0001085088	1982
bin	0.0001093632	1881
bin	0.0001102176	1798
bin	0.000111072	1716
bin	0.0001119264	1791
bin	0.0001127808	1695
bin	0.0001136352	1682
bin	0.0001144896	1719
bin	0.000115344	1708
bin	0.0001161984	1671
bin	0.0001170528	1770
bin	0.0001179072	1756
bin	0.0001187616	1789
bin	0.000119616	1880
bin	0.0001204704	1802
bin	0.0001213248	1824
bin	0.0001221792	1873
bin	0.0001230336	1877
bin	0.000123888	1832
bin	0.0001247424	1902
bin	0.0001255968	1889
bin	0.0001264512	1884
bin	0.0001273056	1921
bin	0.00012816	1884
bin	0.0001290144	1821
bin	0.0001298688	1803
bin	0.0001307232	1673
bin	0.0001315776	1659
bin	0.000132432	1569
bin	0.0001332864	1520
bin	0.0001341408	1467
bin	0.0001349952	1440
bin	0.0001358496	1406
bin	0.000136704	1404
bin	0.0001375584	1432
bin	0.0001384128	1511
bin	0.0001392672	1478
bin	0.0001401216	1428
bin	0.000140976	1522
bin	0.0001418304	1462
bin	0.0001426848	1511
bin	0.0001435392	1548
bin	0.0001443936	1560
bin	0.000145248	1597
bin	0.0001461024	1647
bin	0.0001469568	1645
bin	0.0001478112	1700
bin	0.0001486656	1765
bin	0.00014952	1695
bin	0.0001503744	1680
bin	0.0001512288	1721
bin	0.0001520832	1653
bin	0.0001529376	1615
bin	0.000153792	1628
bin	0.0001546464	1531
bin	0.0001555008	1555
bin	0.0001563552	1500
bin	0.0001572096	1533
bin	0.000158064	1419
bin	0.0001589184	1488
bin	0.0001597728	1448
bin	0.0001606272	1434
bin	0.0001614816	1420
bin	0.000162336	1387
bin	0.0001631904	1301
bin	0.0001640448	1336
bin	0.0001648992	1332
bin	0.0001657536	1309
bin	0.000166608	1361
bin	0.0001674624	1365
bin	0.0001683168	1326
bin	0.0001691712	1348
bin	0.0001700256	1436
bin	0.00017088	1386
bin	0.0001717344	1343
bin	0.0001725888	1440
bin	0.0001734432	1429
bin	0.0001742976	1430
bin	0.000175152	1420
bin	0.0001760064	1416
bin	0.0001768608	1479
bin	0.0001777152	1395
bin	0.0001785696	1398
bin	0.000179424	1370
bin	0.0001802784	1407
bin	0.0001811328	1363
bin	0.0001819872	1344
bin	0.0001828416	1299
bin	0.000183696	1273
bin	0.0001845504	1211
bin	0.0001854048	1201
bin	0.0001862592	1183
bin	0.0001871136	1199
bin	0.000187968	1182
bin	0.0001888224	1185
bin	0.0001896768	1224
bin	0.0001905312	1268
bin	0.0001913856	1313
bin	0.00019224	1323
bin	0.0001930944	1382
bin	0.0001939488	1377
bin	0.0001948032	1324
bin	0.0001956576	1360
bin	0.000196512	1409
bin	0.0001973664	1371
bin	0.0001982208	1439
bin	0.0001990752	1394
bin	0.0001999296	1376
bin	0.000200784	1346
bin	0.0002016384	1372
bin	0.0002024928	1348
bin	0.0002033472	1295
bin	0.0002042016	1300
bin	0.000205056	1238
bin	0.0002059104	1248
bin	0.0002067648	1226
bin	0.0002076192	1231
bin	0.0002084736	1189
bin	0.000209328	1152
bin	0.0002101824	1120
bin	0.0002110368	1190
bin	0.0002118912	1200
bin	0.0002127456	1192
bin	0.0002136	1167
bin	0.0002144544	1154
bin	0.0002153088	1137
bin	0.0002161632	1107
bin	0.0002170176	1203
bin	0.000217872	1214
bin	0.0002187264	1212
bin	0.0002195808	1213
bin	0.0002204352	1280
bin	0.0002212896	1284
bin	0.000222144	1333
bin	0.0002229984	1302
bin	0.0002238528	1330
bin	0.0002247072	1387
bin	0.0002255616	1326
bin	0.000226416	1337
bin	0.0002272704	1282
bin	0.0002281248	1274
bin	0.0002289792	1269
bin	0.0002298336	1281
bin	0.000230688	1250
bin	0.0002315424	1219
bin	0.0002323968	1228
bin	0.0002332512	1131
bin	0.0002341056	1103
bin	0.00023496	1092
bin	0.0002358144	1115
bin	0.0002366688	1095
bin	0.0002375232	1077
bin	0.0002383776	1080
bin	0.000239232	1120
bin	0.0002400864	1058
bin	0.0002409408	1105
bin	0.0002417952	1106
bin	0.0002426496	1152
bin	0.000243504	1200
bin	0.0002443584	1235
bin	0.0002452128	1188
bin	0.0002460672	1195
bin	0.0002469216	1163
bin	0.000247776	1166
bin	0.0002486304	1140
bin	0.0002494848	1192
bin	0.0002503392	1097
bin	0.0002511936	1202
bin	0.000252048	1142
bin	0.0002529024	1089
bin	0.0002537568	1068
bin	0.0002546112	1116
bin	0.0002554656	1101
bin	0.00025632	1092
bin	0.0002571744	1023
bin	0.0002580288	1018
bin	0.0002588832	995
bin	0.0002597376	969
bin	0.000260592	930
bin	0.0002614464	953
bin	0.0002623008	994
bin	0.0002631552	996
bin	0.0002640096	973
bin	0.000264864	1029
bin	0.0002657184	974
bin	0.0002665728	1015
bin	0.0002674272	1047
bin	0.0002682816	1020
bin	0.000269136	1088
bin	0.0002699904	1081
bin	0.0002708448	1143
bin	0.0002716992	1123
bin	0.0002725536	1079
bin	0.000273408	1078
bin	0.0002742624	1094
bin	0.0002751168	1138
bin	0.0002759712	1129
bin	0.0002768256	1100
bin	0.00027768	1061
bin	0.0002785344	1102
bin	0.0002793888	1094
bin	0.0002802432	1024
bin	0.0002810976	1047
bin	0.000281952	1039
bin	0.0002828064	1012
bin	0.0002836608	1008
bin	0.0002845152	1041
bin	0.0002853696	971
bin	0.000286224	1013
bin	0.0002870784	997
bin	0.0002879328	970
bin	0.0002887872	1004
bin	0.0002896416	1059
bin	0.000290496	1025
bin	0.0002913504	1034
bin	0.0002922048	1005
bin	0.0002930592	1070
bin	0.0002939136	1121
bin	0.000294768	1133
bin	0.0002956224	1161
bin	0.0002964768	1093
bin	0.0002973312	1127
bin	0.0002981856	1155
bin	0.00029904	1152
bin	0.0002998944	1135
bin	0.0003007488	1107
bin	0.0003016032	1109
bin	0.0003024576	1074
bin	0.000303312	1023
bin	0.0003041664	1038
bin	0.0003050208	1004
bin	0.0003058752	978
bin	0.0003067296	969
bin	0.000307584	953
bin	0.0003084384	910
bin	0.0003092928	903
bin	0.0003101472	940
bin	0.0003110016	981
bin	0.000311856	1013
bin	0.0003127104	1036
bin	0.0003135648	1002
bin	0.0003144192	1030
bin	0.0003152736	983
bin	0.000316128	978
bin	0.0003169824	1040
bin	0.0003178368	1000
bin	0.0003186912	966
bin	0.0003195456	1048
bin	0.0003204	1041
bin	0.0003212544	1075
bin	0.0003221088	1057
bin	0.0003229632	990
bin	0.0003238176	1051
bin	0.000324672	1033
bin	0.0003255264	1039
bin	0.0003263808	994
bin	0.0003272352	1011
bin	0.0003280896	929
bin	0.000328944	948
bin	0.0003297984	941
bin	0.0003306528	901
bin	0.0003315072	904
bin	0.0003323616	939
bin	0.000333216	941
bin	0.0003340704	947
bin	0.0003349248	930
bin	0.0003357792	920
bin	0.0003366336	919
bin	0.000337488	926
bin	0.0003383424	996
bin	0.0003391968	972
bin	0.0003400512	960
bin	0.0003409056	963
bin	0.00034176	992
bin	0.0003426144	988
bin	0.0003434688	1020
bin	0.0003443232	1014
bin	0.0003451776	1002
bin	0.000346032	1029
bin	0.0003468864	1030
bin	0.0003477408	975
bin	0.0003485952	1036
bin	0.0003494496	1000
bin	0.000350304	991
bin	0.0003511584	980
bin	0.0003520128	953
bin	0.0003528672	942
bin	0.0003537216	933
bin	0.000354576	933
bin	0.0003554304	881
bin	0.0003562848	950
bin	0.0003571392	894
bin	0.0003579936	913
bin	0.000358848	893
bin	0.0003597024	921
bin	0.0003605568	906
bin	0.0003614112	952
bin	0.0003622656	940
bin	0.00036312	969
bin	0.0003639744	907
bin	0.0003648288	894
bin	0.0003656832	904
bin	0.0003665376	988
bin	0.000367392	927
bin	0.0003682464	963
bin	0.0003691008	996
bin	0.0003699552	1014
bin	0.0003708096	1032
bin	0.000371664	1031
bin	0.0003725184	1031
bin	0.0003733728	977
bin	0.0003742272	949
bin	0.0003750816	913
bin	0.000375936	916
bin	0.0003767904	905
bin	0.0003776448	903
bin	0.0003784992	885
bin	0.0003793536	886
bin	0.000380208	807
bin	0.0003810624	800
bin	0.0003819168	797
bin	0.0003827712	799
bin	0.0003836256	789
bin	0.00038448	811
bin	0.0003853344	815
bin	0.0003861888	826
bin	0.0003870432	836
bin	0.0003878976	901
bin	0.000388752	814
bin	0.0003896064	822
bin	0.0003904608	846
bin	0.0003913152	795
bin	0.0003921696	879
bin	0.000393024	849
bin	0.0003938784	901
bin	0.0003947328	852
bin	0.0003955872	872
bin	0.0003964416	870
bin	0.000397296	830
bin	0.0003981504	852
bin	0.0003990048	810
bin	0.0003998592	839
bin	0.0004007136	810
bin	0.000401568	801
bin	0.0004024224	765
bin	0.0004032768	752
bin	0.0004041312	752
bin	0.0004049856	772
bin	0.00040584	765
bin	0.0004066944	732
bin	0.0004075488	732
bin	0.0004084032	781
bin	0.0004092576	722
bin	0.000410112	756
bin	0.0004109664	781
bin	0.0004118208	760
bin	0.0004126752	809
bin	0.0004135296	795
bin	0.000414384	835
bin	0.0004152384	856
bin	0.0004160928	823
bin	0.0004169472	859
bin	0.0004178016	815
bin	0.000418656	822
bin	0.0004195104	833
bin	0.0004203648	861
bin	0.0004212192	876
bin	0.0004220736	833
bin	0.000422928	843
bin	0.0004237824	869
bin	0.0004246368	807
bin	0.0004254912	816
bin	0.0004263456	832
bin	0.0004272	4982734
