version 2
run Transposition-18-20120710-08:52:51-25273
attr alg 2
attr buf 8
attr configname Transposition
attr datetime 20120710-08:52:51
attr delta 1
attr experiment Transposition
attr ext true
attr inifile altro.ini
attr iterationvars "$buf=8, $ext=true, $ofedge=1, $delta=1, $alg=2"
attr iterationvars2 "$buf=8, $ext=true, $ofedge=1, $delta=1, $alg=2, $repetition=0"
attr measurement "$buf=8, $ext=true, $ofedge=1, $delta=1, $alg=2"
attr network Torus3d_bub
attr ofedge 1
attr processid 25273
attr repetition 0
attr replication #0
attr resultdir altro-results
attr runnumber 18
attr seedset 18

scalar . 	alg 	2
scalar . 	buf 	8
scalar . 	delta 	1
scalar . 	ofedge 	1
scalar Torus3d_bub.timer 	#endTime 	0.004755842333332
scalar Torus3d_bub.timer 	#totalHops 	89637488
scalar Torus3d_bub.timer 	#totalPacks 	6291456
scalar Torus3d_bub.timer 	#totalDerouted 	1918728
scalar Torus3d_bub.timer 	#totalOutFlanked 	0
scalar Torus3d_bub.timer 	#totalCQRed 	1918728
scalar Torus3d_bub.timer 	#LB 	0.000786432
scalar Torus3d_bub.timer 	#ratio 	0.16536124305219
statistic Torus3d_bub.timer 	"Hop Times"
field count 6193152
field mean 0.00014143962964894
field stddev 9.6853370199704e-05
field sum 875.95712523962
field sqrsum 0.18199037079994
field min 3.97925925e-07
field max 0.000926616266666
bin	-INF	0
bin	0	0
bin	7.12e-08	0
bin	1.424e-07	0
bin	2.136e-07	0
bin	2.848e-07	0
bin	3.56e-07	28
bin	4.272e-07	721
bin	4.984e-07	1430
bin	5.696e-07	2167
bin	6.408e-07	3132
bin	7.12e-07	4395
bin	7.832e-07	5282
bin	8.544e-07	6243
bin	9.256e-07	7007
bin	9.968e-07	7812
bin	1.068e-06	8533
bin	1.1392e-06	9311
bin	1.2104e-06	10053
bin	1.2816e-06	10904
bin	1.3528e-06	11801
bin	1.424e-06	12827
bin	1.4952e-06	13877
bin	1.5664e-06	14496
bin	1.6376e-06	15109
bin	1.7088e-06	15615
bin	1.78e-06	15786
bin	1.8512e-06	15929
bin	1.9224e-06	16106
bin	1.9936e-06	15908
bin	2.0648e-06	15916
bin	2.136e-06	15370
bin	2.2072e-06	14869
bin	2.2784e-06	14609
bin	2.3496e-06	14037
bin	2.4208e-06	13446
bin	2.492e-06	13261
bin	2.5632e-06	12834
bin	2.6344e-06	12467
bin	2.7056e-06	11803
bin	2.7768e-06	11403
bin	2.848e-06	11009
bin	2.9192e-06	10491
bin	2.9904e-06	9988
bin	3.0616e-06	9660
bin	3.1328e-06	9382
bin	3.204e-06	8862
bin	3.2752e-06	8505
bin	3.3464e-06	8106
bin	3.4176e-06	7823
bin	3.4888e-06	7275
bin	3.56e-06	7084
bin	3.6312e-06	6716
bin	3.7024e-06	6389
bin	3.7736e-06	6142
bin	3.8448e-06	5943
bin	3.916e-06	5793
bin	3.9872e-06	5503
bin	4.0584e-06	5492
bin	4.1296e-06	5351
bin	4.2008e-06	5231
bin	4.272e-06	5095
bin	4.3432e-06	4851
bin	4.4144e-06	4652
bin	4.4856e-06	4507
bin	4.5568e-06	4397
bin	4.628e-06	4317
bin	4.6992e-06	4329
bin	4.7704e-06	4310
bin	4.8416e-06	4113
bin	4.9128e-06	4041
bin	4.984e-06	4025
bin	5.0552e-06	3812
bin	5.1264e-06	3830
bin	5.1976e-06	3504
bin	5.2688e-06	3542
bin	5.34e-06	3346
bin	5.4112e-06	3354
bin	5.4824e-06	3376
bin	5.5536e-06	3348
bin	5.6248e-06	3282
bin	5.696e-06	3038
bin	5.7672e-06	3080
bin	5.8384e-06	3085
bin	5.9096e-06	3031
bin	5.9808e-06	2982
bin	6.052e-06	2930
bin	6.1232e-06	2877
bin	6.1944e-06	2761
bin	6.2656e-06	2784
bin	6.3368e-06	2735
bin	6.408e-06	2668
bin	6.4792e-06	2608
bin	6.5504e-06	2528
bin	6.6216e-06	2551
bin	6.6928e-06	2520
bin	6.764e-06	2529
bin	6.8352e-06	2417
bin	6.9064e-06	2483
bin	6.9776e-06	2470
bin	7.0488e-06	2471
bin	7.12e-06	2443
bin	7.1912e-06	2422
bin	7.2624e-06	2410
bin	7.3336e-06	2390
bin	7.4048e-06	2365
bin	7.476e-06	2325
bin	7.5472e-06	2337
bin	7.6184e-06	2337
bin	7.6896e-06	2384
bin	7.7608e-06	2320
bin	7.832e-06	2318
bin	7.9032e-06	2277
bin	7.9744e-06	2323
bin	8.0456e-06	2200
bin	8.1168e-06	2203
bin	8.188e-06	2109
bin	8.2592e-06	2057
bin	8.3304e-06	2073
bin	8.4016e-06	1927
bin	8.4728e-06	1972
bin	8.544e-06	1950
bin	8.6152e-06	1869
bin	8.6864e-06	1871
bin	8.7576e-06	1804
bin	8.8288e-06	1788
bin	8.9e-06	1803
bin	8.9712e-06	1783
bin	9.0424e-06	1883
bin	9.1136e-06	1906
bin	9.1848e-06	1886
bin	9.256e-06	1903
bin	9.3272e-06	1845
bin	9.3984e-06	1775
bin	9.4696e-06	1794
bin	9.5408e-06	1749
bin	9.612e-06	1690
bin	9.6832e-06	1668
bin	9.7544e-06	1638
bin	9.8256e-06	1607
bin	9.8968e-06	1670
bin	9.968e-06	1649
bin	1.00392e-05	1619
bin	1.01104e-05	1539
bin	1.01816e-05	1558
bin	1.02528e-05	1494
bin	1.0324e-05	1473
bin	1.03952e-05	1474
bin	1.04664e-05	1489
bin	1.05376e-05	1476
bin	1.06088e-05	1469
bin	1.068e-05	1480
bin	1.07512e-05	1465
bin	1.08224e-05	1429
bin	1.08936e-05	1438
bin	1.09648e-05	1409
bin	1.1036e-05	1427
bin	1.11072e-05	1438
bin	1.11784e-05	1418
bin	1.12496e-05	1359
bin	1.13208e-05	1431
bin	1.1392e-05	1341
bin	1.14632e-05	1342
bin	1.15344e-05	1266
bin	1.16056e-05	1309
bin	1.16768e-05	1249
bin	1.1748e-05	1222
bin	1.18192e-05	1256
bin	1.18904e-05	1243
bin	1.19616e-05	1297
bin	1.20328e-05	1294
bin	1.2104e-05	1311
bin	1.21752e-05	1326
bin	1.22464e-05	1334
bin	1.23176e-05	1318
bin	1.23888e-05	1382
bin	1.246e-05	1387
bin	1.25312e-05	1489
bin	1.26024e-05	1407
bin	1.26736e-05	1365
bin	1.27448e-05	1310
bin	1.2816e-05	1252
bin	1.28872e-05	1268
bin	1.29584e-05	1257
bin	1.30296e-05	1206
bin	1.31008e-05	1218
bin	1.3172e-05	1272
bin	1.32432e-05	1193
bin	1.33144e-05	1204
bin	1.33856e-05	1152
bin	1.34568e-05	1154
bin	1.3528e-05	1199
bin	1.35992e-05	1138
bin	1.36704e-05	1090
bin	1.37416e-05	1139
bin	1.38128e-05	1066
bin	1.3884e-05	1100
bin	1.39552e-05	1107
bin	1.40264e-05	1094
bin	1.40976e-05	1125
bin	1.41688e-05	1119
bin	1.424e-05	1124
bin	1.43112e-05	1100
bin	1.43824e-05	1086
bin	1.44536e-05	1074
bin	1.45248e-05	1114
bin	1.4596e-05	1081
bin	1.46672e-05	1116
bin	1.47384e-05	1106
bin	1.48096e-05	1069
bin	1.48808e-05	1132
bin	1.4952e-05	1136
bin	1.50232e-05	1047
bin	1.50944e-05	1104
bin	1.51656e-05	1135
bin	1.52368e-05	1135
bin	1.5308e-05	1099
bin	1.53792e-05	1127
bin	1.54504e-05	1132
bin	1.55216e-05	1153
bin	1.55928e-05	1167
bin	1.5664e-05	1175
bin	1.57352e-05	1180
bin	1.58064e-05	1187
bin	1.58776e-05	1194
bin	1.59488e-05	1142
bin	1.602e-05	1116
bin	1.60912e-05	1181
bin	1.61624e-05	1110
bin	1.62336e-05	1097
bin	1.63048e-05	1065
bin	1.6376e-05	1059
bin	1.64472e-05	1089
bin	1.65184e-05	1127
bin	1.65896e-05	1126
bin	1.66608e-05	1138
bin	1.6732e-05	1066
bin	1.68032e-05	1108
bin	1.68744e-05	1086
bin	1.69456e-05	1096
bin	1.70168e-05	1132
bin	1.7088e-05	1112
bin	1.71592e-05	1087
bin	1.72304e-05	1116
bin	1.73016e-05	1136
bin	1.73728e-05	1124
bin	1.7444e-05	1135
bin	1.75152e-05	1100
bin	1.75864e-05	1104
bin	1.76576e-05	1058
bin	1.77288e-05	1081
bin	1.78e-05	1126
bin	1.78712e-05	1113
bin	1.79424e-05	1103
bin	1.80136e-05	1125
bin	1.80848e-05	1121
bin	1.8156e-05	1126
bin	1.82272e-05	1082
bin	1.82984e-05	1018
bin	1.83696e-05	1101
bin	1.84408e-05	1037
bin	1.8512e-05	1009
bin	1.85832e-05	1041
bin	1.86544e-05	1085
bin	1.87256e-05	1108
bin	1.87968e-05	1111
bin	1.8868e-05	1065
bin	1.89392e-05	1095
bin	1.90104e-05	1076
bin	1.90816e-05	1056
bin	1.91528e-05	984
bin	1.9224e-05	1053
bin	1.92952e-05	994
bin	1.93664e-05	983
bin	1.94376e-05	974
bin	1.95088e-05	996
bin	1.958e-05	948
bin	1.96512e-05	990
bin	1.97224e-05	1062
bin	1.97936e-05	1016
bin	1.98648e-05	1024
bin	1.9936e-05	991
bin	2.00072e-05	1102
bin	2.00784e-05	1021
bin	2.01496e-05	988
bin	2.02208e-05	1124
bin	2.0292e-05	1060
bin	2.03632e-05	1093
bin	2.04344e-05	1072
bin	2.05056e-05	1050
bin	2.05768e-05	1037
bin	2.0648e-05	999
bin	2.07192e-05	999
bin	2.07904e-05	971
bin	2.08616e-05	1020
bin	2.09328e-05	1025
bin	2.1004e-05	968
bin	2.10752e-05	955
bin	2.11464e-05	942
bin	2.12176e-05	974
bin	2.12888e-05	930
bin	2.136e-05	942
bin	2.14312e-05	934
bin	2.15024e-05	917
bin	2.15736e-05	859
bin	2.16448e-05	805
bin	2.1716e-05	827
bin	2.17872e-05	847
bin	2.18584e-05	831
bin	2.19296e-05	861
bin	2.20008e-05	819
bin	2.2072e-05	903
bin	2.21432e-05	912
bin	2.22144e-05	946
bin	2.22856e-05	903
bin	2.23568e-05	932
bin	2.2428e-05	886
bin	2.24992e-05	908
bin	2.25704e-05	860
bin	2.26416e-05	828
bin	2.27128e-05	890
bin	2.2784e-05	910
bin	2.28552e-05	877
bin	2.29264e-05	881
bin	2.29976e-05	862
bin	2.30688e-05	846
bin	2.314e-05	890
bin	2.32112e-05	841
bin	2.32824e-05	829
bin	2.33536e-05	846
bin	2.34248e-05	904
bin	2.3496e-05	865
bin	2.35672e-05	862
bin	2.36384e-05	788
bin	2.37096e-05	865
bin	2.37808e-05	816
bin	2.3852e-05	805
bin	2.39232e-05	825
bin	2.39944e-05	835
bin	2.40656e-05	822
bin	2.41368e-05	783
bin	2.4208e-05	812
bin	2.42792e-05	865
bin	2.43504e-05	870
bin	2.44216e-05	923
bin	2.44928e-05	877
bin	2.4564e-05	870
bin	2.46352e-05	887
bin	2.47064e-05	850
bin	2.47776e-05	909
bin	2.48488e-05	912
bin	2.492e-05	929
bin	2.49912e-05	925
bin	2.50624e-05	895
bin	2.51336e-05	860
bin	2.52048e-05	880
bin	2.5276e-05	802
bin	2.53472e-05	842
bin	2.54184e-05	795
bin	2.54896e-05	781
bin	2.55608e-05	834
bin	2.5632e-05	823
bin	2.57032e-05	846
bin	2.57744e-05	802
bin	2.58456e-05	768
bin	2.59168e-05	804
bin	2.5988e-05	773
bin	2.60592e-05	763
bin	2.61304e-05	748
bin	2.62016e-05	717
bin	2.62728e-05	772
bin	2.6344e-05	765
bin	2.64152e-05	750
bin	2.64864e-05	758
bin	2.65576e-05	732
bin	2.66288e-05	765
bin	2.67e-05	697
bin	2.67712e-05	705
bin	2.68424e-05	704
bin	2.69136e-05	685
bin	2.69848e-05	723
bin	2.7056e-05	745
bin	2.71272e-05	783
bin	2.71984e-05	749
bin	2.72696e-05	778
bin	2.73408e-05	776
bin	2.7412e-05	788
bin	2.74832e-05	829
bin	2.75544e-05	781
bin	2.76256e-05	758
bin	2.76968e-05	849
bin	2.7768e-05	805
bin	2.78392e-05	752
bin	2.79104e-05	781
bin	2.79816e-05	785
bin	2.80528e-05	779
bin	2.8124e-05	789
bin	2.81952e-05	784
bin	2.82664e-05	766
bin	2.83376e-05	756
bin	2.84088e-05	716
bin	2.848e-05	772
bin	2.85512e-05	760
bin	2.86224e-05	792
bin	2.86936e-05	779
bin	2.87648e-05	743
bin	2.8836e-05	786
bin	2.89072e-05	747
bin	2.89784e-05	771
bin	2.90496e-05	764
bin	2.91208e-05	811
bin	2.9192e-05	802
bin	2.92632e-05	790
bin	2.93344e-05	814
bin	2.94056e-05	791
bin	2.94768e-05	827
bin	2.9548e-05	786
bin	2.96192e-05	768
bin	2.96904e-05	783
bin	2.97616e-05	769
bin	2.98328e-05	777
bin	2.9904e-05	801
bin	2.99752e-05	789
bin	3.00464e-05	838
bin	3.01176e-05	811
bin	3.01888e-05	766
bin	3.026e-05	769
bin	3.03312e-05	734
bin	3.04024e-05	753
bin	3.04736e-05	764
bin	3.05448e-05	745
bin	3.0616e-05	753
bin	3.06872e-05	809
bin	3.07584e-05	773
bin	3.08296e-05	839
bin	3.09008e-05	784
bin	3.0972e-05	835
bin	3.10432e-05	818
bin	3.11144e-05	843
bin	3.11856e-05	922
bin	3.12568e-05	886
bin	3.1328e-05	878
bin	3.13992e-05	863
bin	3.14704e-05	851
bin	3.15416e-05	870
bin	3.16128e-05	892
bin	3.1684e-05	949
bin	3.17552e-05	924
bin	3.18264e-05	859
bin	3.18976e-05	789
bin	3.19688e-05	793
bin	3.204e-05	823
bin	3.21112e-05	875
bin	3.21824e-05	956
bin	3.22536e-05	952
bin	3.23248e-05	933
bin	3.2396e-05	940
bin	3.24672e-05	890
bin	3.25384e-05	916
bin	3.26096e-05	937
bin	3.26808e-05	910
bin	3.2752e-05	866
bin	3.28232e-05	919
bin	3.28944e-05	916
bin	3.29656e-05	885
bin	3.30368e-05	890
bin	3.3108e-05	891
bin	3.31792e-05	925
bin	3.32504e-05	863
bin	3.33216e-05	845
bin	3.33928e-05	937
bin	3.3464e-05	909
bin	3.35352e-05	891
bin	3.36064e-05	862
bin	3.36776e-05	869
bin	3.37488e-05	820
bin	3.382e-05	897
bin	3.38912e-05	850
bin	3.39624e-05	804
bin	3.40336e-05	808
bin	3.41048e-05	824
bin	3.4176e-05	867
bin	3.42472e-05	885
bin	3.43184e-05	900
bin	3.43896e-05	908
bin	3.44608e-05	961
bin	3.4532e-05	949
bin	3.46032e-05	928
bin	3.46744e-05	967
bin	3.47456e-05	987
bin	3.48168e-05	981
bin	3.4888e-05	920
bin	3.49592e-05	903
bin	3.50304e-05	895
bin	3.51016e-05	937
bin	3.51728e-05	903
bin	3.5244e-05	950
bin	3.53152e-05	916
bin	3.53864e-05	876
bin	3.54576e-05	840
bin	3.55288e-05	889
bin	3.56e-05	5097399
statistic Torus3d_bub.timer 	"Life Times"
field count 6291456
field mean 0.0019249093034825
field stddev 0.0012585845073863
field sum 12110.482186851
field sqrsum 33.277464514442
field min 2.06665553e-07
field max 0.004732825666666
bin	-INF	0
bin	0	6528
bin	8.544e-07	8192
bin	1.7088e-06	8498
bin	2.5632e-06	8940
bin	3.4176e-06	9390
bin	4.272e-06	9940
bin	5.1264e-06	10832
bin	5.9808e-06	11723
bin	6.8352e-06	12660
bin	7.6896e-06	13540
bin	8.544e-06	14570
bin	9.3984e-06	15645
bin	1.02528e-05	10069
bin	1.11072e-05	9368
bin	1.19616e-05	9923
bin	1.2816e-05	10655
bin	1.36704e-05	11118
bin	1.45248e-05	11851
bin	1.53792e-05	12600
bin	1.62336e-05	12949
bin	1.7088e-05	13401
bin	1.79424e-05	13537
bin	1.87968e-05	13911
bin	1.96512e-05	14401
bin	2.05056e-05	14923
bin	2.136e-05	15469
bin	2.22144e-05	15667
bin	2.30688e-05	16189
bin	2.39232e-05	16547
bin	2.47776e-05	17116
bin	2.5632e-05	17191
bin	2.64864e-05	17135
bin	2.73408e-05	16672
bin	2.81952e-05	15873
bin	2.90496e-05	15342
bin	2.9904e-05	14484
bin	3.07584e-05	13571
bin	3.16128e-05	12610
bin	3.24672e-05	11705
bin	3.33216e-05	10749
bin	3.4176e-05	9756
bin	3.50304e-05	8800
bin	3.58848e-05	8143
bin	3.67392e-05	7529
bin	3.75936e-05	6928
bin	3.8448e-05	6661
bin	3.93024e-05	6350
bin	4.01568e-05	6066
bin	4.10112e-05	5865
bin	4.18656e-05	5583
bin	4.272e-05	5467
bin	4.35744e-05	5240
bin	4.44288e-05	5175
bin	4.52832e-05	5098
bin	4.61376e-05	5020
bin	4.6992e-05	5047
bin	4.78464e-05	5079
bin	4.87008e-05	4932
bin	4.95552e-05	5027
bin	5.04096e-05	5011
bin	5.1264e-05	4816
bin	5.21184e-05	4631
bin	5.29728e-05	4640
bin	5.38272e-05	4411
bin	5.46816e-05	4353
bin	5.5536e-05	4195
bin	5.63904e-05	4033
bin	5.72448e-05	3877
bin	5.80992e-05	3755
bin	5.89536e-05	3615
bin	5.9808e-05	3504
bin	6.06624e-05	3473
bin	6.15168e-05	3143
bin	6.23712e-05	3164
bin	6.32256e-05	3058
bin	6.408e-05	2988
bin	6.49344e-05	2857
bin	6.57888e-05	2840
bin	6.66432e-05	2747
bin	6.74976e-05	2823
bin	6.8352e-05	2635
bin	6.92064e-05	2727
bin	7.00608e-05	2717
bin	7.09152e-05	2717
bin	7.17696e-05	2806
bin	7.2624e-05	2716
bin	7.34784e-05	2810
bin	7.43328e-05	2794
bin	7.51872e-05	2796
bin	7.60416e-05	2800
bin	7.6896e-05	2687
bin	7.77504e-05	2694
bin	7.86048e-05	2727
bin	7.94592e-05	2689
bin	8.03136e-05	2658
bin	8.1168e-05	2599
bin	8.20224e-05	2510
bin	8.28768e-05	2422
bin	8.37312e-05	2357
bin	8.45856e-05	2292
bin	8.544e-05	2241
bin	8.62944e-05	2099
bin	8.71488e-05	2137
bin	8.80032e-05	2104
bin	8.88576e-05	2035
bin	8.9712e-05	2090
bin	9.05664e-05	2100
bin	9.14208e-05	2019
bin	9.22752e-05	2001
bin	9.31296e-05	1903
bin	9.3984e-05	1910
bin	9.48384e-05	1918
bin	9.56928e-05	1902
bin	9.65472e-05	1866
bin	9.74016e-05	1912
bin	9.8256e-05	1927
bin	9.91104e-05	1931
bin	9.99648e-05	1988
bin	0.0001008192	1992
bin	0.0001016736	2022
bin	0.000102528	1921
bin	0.0001033824	1930
bin	0.0001042368	1931
bin	0.0001050912	1915
bin	0.0001059456	1866
bin	0.0001068	1861
bin	0.0001076544	1860
bin	0.0001085088	1748
bin	0.0001093632	1683
bin	0.0001102176	1663
bin	0.000111072	1681
bin	0.0001119264	1591
bin	0.0001127808	1574
bin	0.0001136352	1594
bin	0.0001144896	1556
bin	0.000115344	1467
bin	0.0001161984	1439
bin	0.0001170528	1451
bin	0.0001179072	1451
bin	0.0001187616	1435
bin	0.000119616	1490
bin	0.0001204704	1520
bin	0.0001213248	1556
bin	0.0001221792	1574
bin	0.0001230336	1551
bin	0.000123888	1603
bin	0.0001247424	1687
bin	0.0001255968	1644
bin	0.0001264512	1692
bin	0.0001273056	1687
bin	0.00012816	1629
bin	0.0001290144	1663
bin	0.0001298688	1643
bin	0.0001307232	1623
bin	0.0001315776	1603
bin	0.000132432	1598
bin	0.0001332864	1576
bin	0.0001341408	1490
bin	0.0001349952	1484
bin	0.0001358496	1404
bin	0.000136704	1424
bin	0.0001375584	1347
bin	0.0001384128	1369
bin	0.0001392672	1361
bin	0.0001401216	1329
bin	0.000140976	1322
bin	0.0001418304	1288
bin	0.0001426848	1310
bin	0.0001435392	1341
bin	0.0001443936	1382
bin	0.000145248	1360
bin	0.0001461024	1357
bin	0.0001469568	1433
bin	0.0001478112	1487
bin	0.0001486656	1451
bin	0.00014952	1488
bin	0.0001503744	1497
bin	0.0001512288	1499
bin	0.0001520832	1563
bin	0.0001529376	1520
bin	0.000153792	1523
bin	0.0001546464	1539
bin	0.0001555008	1453
bin	0.0001563552	1460
bin	0.0001572096	1405
bin	0.000158064	1451
bin	0.0001589184	1300
bin	0.0001597728	1341
bin	0.0001606272	1301
bin	0.0001614816	1338
bin	0.000162336	1314
bin	0.0001631904	1270
bin	0.0001640448	1224
bin	0.0001648992	1233
bin	0.0001657536	1251
bin	0.000166608	1232
bin	0.0001674624	1260
bin	0.0001683168	1312
bin	0.0001691712	1340
bin	0.0001700256	1311
bin	0.00017088	1301
bin	0.0001717344	1380
bin	0.0001725888	1308
bin	0.0001734432	1295
bin	0.0001742976	1287
bin	0.000175152	1314
bin	0.0001760064	1340
bin	0.0001768608	1335
bin	0.0001777152	1333
bin	0.0001785696	1317
bin	0.000179424	1293
bin	0.0001802784	1327
bin	0.0001811328	1315
bin	0.0001819872	1265
bin	0.0001828416	1239
bin	0.000183696	1214
bin	0.0001845504	1174
bin	0.0001854048	1149
bin	0.0001862592	1135
bin	0.0001871136	1085
bin	0.000187968	1087
bin	0.0001888224	1089
bin	0.0001896768	1064
bin	0.0001905312	1052
bin	0.0001913856	1024
bin	0.00019224	1106
bin	0.0001930944	1008
bin	0.0001939488	1053
bin	0.0001948032	1036
bin	0.0001956576	993
bin	0.000196512	963
bin	0.0001973664	1014
bin	0.0001982208	1024
bin	0.0001990752	1055
bin	0.0001999296	1089
bin	0.000200784	1128
bin	0.0002016384	1150
bin	0.0002024928	1187
bin	0.0002033472	1125
bin	0.0002042016	1102
bin	0.000205056	1089
bin	0.0002059104	1050
bin	0.0002067648	1056
bin	0.0002076192	1006
bin	0.0002084736	1010
bin	0.000209328	975
bin	0.0002101824	944
bin	0.0002110368	975
bin	0.0002118912	964
bin	0.0002127456	875
bin	0.0002136	880
bin	0.0002144544	859
bin	0.0002153088	854
bin	0.0002161632	888
bin	0.0002170176	919
bin	0.000217872	910
bin	0.0002187264	924
bin	0.0002195808	909
bin	0.0002204352	915
bin	0.0002212896	971
bin	0.000222144	959
bin	0.0002229984	958
bin	0.0002238528	974
bin	0.0002247072	969
bin	0.0002255616	991
bin	0.000226416	961
bin	0.0002272704	974
bin	0.0002281248	993
bin	0.0002289792	932
bin	0.0002298336	935
bin	0.000230688	943
bin	0.0002315424	940
bin	0.0002323968	906
bin	0.0002332512	938
bin	0.0002341056	884
bin	0.00023496	881
bin	0.0002358144	866
bin	0.0002366688	853
bin	0.0002375232	829
bin	0.0002383776	784
bin	0.000239232	812
bin	0.0002400864	804
bin	0.0002409408	806
bin	0.0002417952	809
bin	0.0002426496	818
bin	0.000243504	826
bin	0.0002443584	810
bin	0.0002452128	779
bin	0.0002460672	808
bin	0.0002469216	869
bin	0.000247776	805
bin	0.0002486304	830
bin	0.0002494848	812
bin	0.0002503392	849
bin	0.0002511936	830
bin	0.000252048	846
bin	0.0002529024	857
bin	0.0002537568	825
bin	0.0002546112	842
bin	0.0002554656	832
bin	0.00025632	785
bin	0.0002571744	797
bin	0.0002580288	773
bin	0.0002588832	790
bin	0.0002597376	759
bin	0.000260592	748
bin	0.0002614464	722
bin	0.0002623008	743
bin	0.0002631552	724
bin	0.0002640096	690
bin	0.000264864	703
bin	0.0002657184	724
bin	0.0002665728	639
bin	0.0002674272	686
bin	0.0002682816	712
bin	0.000269136	729
bin	0.0002699904	760
bin	0.0002708448	748
bin	0.0002716992	772
bin	0.0002725536	829
bin	0.000273408	828
bin	0.0002742624	813
bin	0.0002751168	824
bin	0.0002759712	854
bin	0.0002768256	833
bin	0.00027768	840
bin	0.0002785344	853
bin	0.0002793888	849
bin	0.0002802432	801
bin	0.0002810976	790
bin	0.000281952	767
bin	0.0002828064	784
bin	0.0002836608	763
bin	0.0002845152	792
bin	0.0002853696	815
bin	0.000286224	794
bin	0.0002870784	755
bin	0.0002879328	765
bin	0.0002887872	758
bin	0.0002896416	757
bin	0.000290496	803
bin	0.0002913504	772
bin	0.0002922048	790
bin	0.0002930592	803
bin	0.0002939136	827
bin	0.000294768	832
bin	0.0002956224	832
bin	0.0002964768	841
bin	0.0002973312	857
bin	0.0002981856	840
bin	0.00029904	856
bin	0.0002998944	861
bin	0.0003007488	839
bin	0.0003016032	896
bin	0.0003024576	850
bin	0.000303312	807
bin	0.0003041664	779
bin	0.0003050208	739
bin	0.0003058752	753
bin	0.0003067296	748
bin	0.000307584	790
bin	0.0003084384	757
bin	0.0003092928	694
bin	0.0003101472	766
bin	0.0003110016	702
bin	0.000311856	754
bin	0.0003127104	752
bin	0.0003135648	747
bin	0.0003144192	716
bin	0.0003152736	782
bin	0.000316128	745
bin	0.0003169824	738
bin	0.0003178368	757
bin	0.0003186912	744
bin	0.0003195456	778
bin	0.0003204	720
bin	0.0003212544	792
bin	0.0003221088	799
bin	0.0003229632	793
bin	0.0003238176	793
bin	0.000324672	771
bin	0.0003255264	813
bin	0.0003263808	771
bin	0.0003272352	763
bin	0.0003280896	769
bin	0.000328944	788
bin	0.0003297984	785
bin	0.0003306528	752
bin	0.0003315072	741
bin	0.0003323616	786
bin	0.000333216	749
bin	0.0003340704	755
bin	0.0003349248	742
bin	0.0003357792	734
bin	0.0003366336	753
bin	0.000337488	733
bin	0.0003383424	732
bin	0.0003391968	748
bin	0.0003400512	737
bin	0.0003409056	751
bin	0.00034176	802
bin	0.0003426144	854
bin	0.0003434688	813
bin	0.0003443232	778
bin	0.0003451776	786
bin	0.000346032	826
bin	0.0003468864	804
bin	0.0003477408	798
bin	0.0003485952	807
bin	0.0003494496	808
bin	0.000350304	800
bin	0.0003511584	743
bin	0.0003520128	801
bin	0.0003528672	783
bin	0.0003537216	754
bin	0.000354576	796
bin	0.0003554304	802
bin	0.0003562848	776
bin	0.0003571392	766
bin	0.0003579936	727
bin	0.000358848	760
bin	0.0003597024	753
bin	0.0003605568	713
bin	0.0003614112	749
bin	0.0003622656	706
bin	0.00036312	721
bin	0.0003639744	727
bin	0.0003648288	757
bin	0.0003656832	745
bin	0.0003665376	728
bin	0.000367392	703
bin	0.0003682464	694
bin	0.0003691008	692
bin	0.0003699552	735
bin	0.0003708096	708
bin	0.000371664	728
bin	0.0003725184	764
bin	0.0003733728	732
bin	0.0003742272	732
bin	0.0003750816	769
bin	0.000375936	741
bin	0.0003767904	763
bin	0.0003776448	760
bin	0.0003784992	788
bin	0.0003793536	759
bin	0.000380208	725
bin	0.0003810624	712
bin	0.0003819168	755
bin	0.0003827712	656
bin	0.0003836256	737
bin	0.00038448	697
bin	0.0003853344	676
bin	0.0003861888	705
bin	0.0003870432	694
bin	0.0003878976	666
bin	0.000388752	641
bin	0.0003896064	607
bin	0.0003904608	623
bin	0.0003913152	630
bin	0.0003921696	631
bin	0.000393024	647
bin	0.0003938784	668
bin	0.0003947328	679
bin	0.0003955872	705
bin	0.0003964416	729
bin	0.000397296	723
bin	0.0003981504	723
bin	0.0003990048	697
bin	0.0003998592	755
bin	0.0004007136	707
bin	0.000401568	712
bin	0.0004024224	686
bin	0.0004032768	685
bin	0.0004041312	672
bin	0.0004049856	619
bin	0.00040584	630
bin	0.0004066944	644
bin	0.0004075488	631
bin	0.0004084032	609
bin	0.0004092576	586
bin	0.000410112	591
bin	0.0004109664	573
bin	0.0004118208	555
bin	0.0004126752	575
bin	0.0004135296	574
bin	0.000414384	610
bin	0.0004152384	596
bin	0.0004160928	578
bin	0.0004169472	628
bin	0.0004178016	588
bin	0.000418656	615
bin	0.0004195104	636
bin	0.0004203648	642
bin	0.0004212192	653
bin	0.0004220736	675
bin	0.000422928	665
bin	0.0004237824	759
bin	0.0004246368	733
bin	0.0004254912	697
bin	0.0004263456	715
bin	0.0004272	5117979
