version 2
run Transposition-32-20120710-10:36:09-25354
attr alg 0
attr buf 8
attr configname Transposition
attr datetime 20120710-10:36:09
attr delta 0.8
attr experiment Transposition
attr ext true
attr inifile altro.ini
attr iterationvars "$buf=8, $ext=true, $ofedge=2, $delta=0.8, $alg=0"
attr iterationvars2 "$buf=8, $ext=true, $ofedge=2, $delta=0.8, $alg=0, $repetition=0"
attr measurement "$buf=8, $ext=true, $ofedge=2, $delta=0.8, $alg=0"
attr network Torus3d_bub
attr ofedge 2
attr processid 25354
attr repetition 0
attr replication #0
attr resultdir altro-results
attr runnumber 32
attr seedset 32

scalar . 	alg 	0
scalar . 	buf 	8
scalar . 	delta 	0.8
scalar . 	ofedge 	2
scalar Torus3d_bub.timer 	#endTime 	0.003918335666618
scalar Torus3d_bub.timer 	#totalHops 	75497472
scalar Torus3d_bub.timer 	#totalPacks 	6291456
scalar Torus3d_bub.timer 	#totalDerouted 	0
scalar Torus3d_bub.timer 	#totalOutFlanked 	0
scalar Torus3d_bub.timer 	#totalCQRed 	0
scalar Torus3d_bub.timer 	#LB 	0.000786432
scalar Torus3d_bub.timer 	#ratio 	0.20070562272139
statistic Torus3d_bub.timer 	"Hop Times"
field count 6193152
field mean 9.3466364656546e-05
field stddev 7.7805753337299e-05
field sum 578.85140320542
field sqrsum 0.091594832865992
field min 3.9792592e-07
field max 0.000746631466666
bin	-INF	0
bin	0	0
bin	7.12e-08	0
bin	1.424e-07	0
bin	2.136e-07	0
bin	2.848e-07	0
bin	3.56e-07	36
bin	4.272e-07	938
bin	4.984e-07	1882
bin	5.696e-07	2996
bin	6.408e-07	4189
bin	7.12e-07	5288
bin	7.832e-07	6301
bin	8.544e-07	6834
bin	9.256e-07	7913
bin	9.968e-07	8713
bin	1.068e-06	9608
bin	1.1392e-06	10335
bin	1.2104e-06	11365
bin	1.2816e-06	12715
bin	1.3528e-06	13829
bin	1.424e-06	15193
bin	1.4952e-06	16377
bin	1.5664e-06	17572
bin	1.6376e-06	18733
bin	1.7088e-06	19251
bin	1.78e-06	20154
bin	1.8512e-06	20690
bin	1.9224e-06	20955
bin	1.9936e-06	21512
bin	2.0648e-06	21582
bin	2.136e-06	21299
bin	2.2072e-06	21192
bin	2.2784e-06	20640
bin	2.3496e-06	20230
bin	2.4208e-06	20111
bin	2.492e-06	19346
bin	2.5632e-06	19071
bin	2.6344e-06	18463
bin	2.7056e-06	18087
bin	2.7768e-06	17368
bin	2.848e-06	16987
bin	2.9192e-06	16440
bin	2.9904e-06	16102
bin	3.0616e-06	15274
bin	3.1328e-06	15007
bin	3.204e-06	14532
bin	3.2752e-06	14082
bin	3.3464e-06	13808
bin	3.4176e-06	13156
bin	3.4888e-06	12944
bin	3.56e-06	12414
bin	3.6312e-06	11983
bin	3.7024e-06	11650
bin	3.7736e-06	11190
bin	3.8448e-06	10991
bin	3.916e-06	10726
bin	3.9872e-06	10201
bin	4.0584e-06	9960
bin	4.1296e-06	9756
bin	4.2008e-06	9453
bin	4.272e-06	9215
bin	4.3432e-06	8881
bin	4.4144e-06	8589
bin	4.4856e-06	8439
bin	4.5568e-06	8190
bin	4.628e-06	8187
bin	4.6992e-06	8104
bin	4.7704e-06	7788
bin	4.8416e-06	7676
bin	4.9128e-06	7518
bin	4.984e-06	7287
bin	5.0552e-06	7267
bin	5.1264e-06	7190
bin	5.1976e-06	6901
bin	5.2688e-06	6879
bin	5.34e-06	6828
bin	5.4112e-06	6732
bin	5.4824e-06	6557
bin	5.5536e-06	6645
bin	5.6248e-06	6469
bin	5.696e-06	6261
bin	5.7672e-06	6265
bin	5.8384e-06	6068
bin	5.9096e-06	6126
bin	5.9808e-06	5993
bin	6.052e-06	6055
bin	6.1232e-06	5843
bin	6.1944e-06	5857
bin	6.2656e-06	5825
bin	6.3368e-06	5672
bin	6.408e-06	5526
bin	6.4792e-06	5236
bin	6.5504e-06	5295
bin	6.6216e-06	5250
bin	6.6928e-06	5242
bin	6.764e-06	5166
bin	6.8352e-06	5105
bin	6.9064e-06	5061
bin	6.9776e-06	5002
bin	7.0488e-06	4851
bin	7.12e-06	4773
bin	7.1912e-06	4692
bin	7.2624e-06	4728
bin	7.3336e-06	4523
bin	7.4048e-06	4647
bin	7.476e-06	4519
bin	7.5472e-06	4646
bin	7.6184e-06	4547
bin	7.6896e-06	4443
bin	7.7608e-06	4370
bin	7.832e-06	4389
bin	7.9032e-06	4424
bin	7.9744e-06	4290
bin	8.0456e-06	4241
bin	8.1168e-06	4229
bin	8.188e-06	4131
bin	8.2592e-06	4127
bin	8.3304e-06	4077
bin	8.4016e-06	4018
bin	8.4728e-06	3982
bin	8.544e-06	3845
bin	8.6152e-06	4020
bin	8.6864e-06	3896
bin	8.7576e-06	3921
bin	8.8288e-06	3920
bin	8.9e-06	3866
bin	8.9712e-06	3892
bin	9.0424e-06	3710
bin	9.1136e-06	3843
bin	9.1848e-06	3801
bin	9.256e-06	3818
bin	9.3272e-06	3716
bin	9.3984e-06	3792
bin	9.4696e-06	3758
bin	9.5408e-06	3786
bin	9.612e-06	3686
bin	9.6832e-06	3651
bin	9.7544e-06	3643
bin	9.8256e-06	3542
bin	9.8968e-06	3494
bin	9.968e-06	3544
bin	1.00392e-05	3425
bin	1.01104e-05	3369
bin	1.01816e-05	3302
bin	1.02528e-05	3332
bin	1.0324e-05	3238
bin	1.03952e-05	3267
bin	1.04664e-05	3263
bin	1.05376e-05	3337
bin	1.06088e-05	3279
bin	1.068e-05	3358
bin	1.07512e-05	3287
bin	1.08224e-05	3256
bin	1.08936e-05	3271
bin	1.09648e-05	3255
bin	1.1036e-05	3296
bin	1.11072e-05	3210
bin	1.11784e-05	3263
bin	1.12496e-05	3105
bin	1.13208e-05	3212
bin	1.1392e-05	3194
bin	1.14632e-05	3190
bin	1.15344e-05	3144
bin	1.16056e-05	3175
bin	1.16768e-05	3136
bin	1.1748e-05	3135
bin	1.18192e-05	3080
bin	1.18904e-05	3054
bin	1.19616e-05	3189
bin	1.20328e-05	3136
bin	1.2104e-05	3088
bin	1.21752e-05	3037
bin	1.22464e-05	3047
bin	1.23176e-05	3026
bin	1.23888e-05	2995
bin	1.246e-05	3032
bin	1.25312e-05	2994
bin	1.26024e-05	2919
bin	1.26736e-05	2940
bin	1.27448e-05	3044
bin	1.2816e-05	2912
bin	1.28872e-05	2895
bin	1.29584e-05	2959
bin	1.30296e-05	2938
bin	1.31008e-05	2828
bin	1.3172e-05	2900
bin	1.32432e-05	2841
bin	1.33144e-05	2835
bin	1.33856e-05	2800
bin	1.34568e-05	2807
bin	1.3528e-05	2759
bin	1.35992e-05	2754
bin	1.36704e-05	2754
bin	1.37416e-05	2654
bin	1.38128e-05	2673
bin	1.3884e-05	2698
bin	1.39552e-05	2718
bin	1.40264e-05	2690
bin	1.40976e-05	2723
bin	1.41688e-05	2664
bin	1.424e-05	2729
bin	1.43112e-05	2675
bin	1.43824e-05	2700
bin	1.44536e-05	2618
bin	1.45248e-05	2666
bin	1.4596e-05	2615
bin	1.46672e-05	2589
bin	1.47384e-05	2623
bin	1.48096e-05	2609
bin	1.48808e-05	2544
bin	1.4952e-05	2584
bin	1.50232e-05	2522
bin	1.50944e-05	2553
bin	1.51656e-05	2563
bin	1.52368e-05	2578
bin	1.5308e-05	2574
bin	1.53792e-05	2490
bin	1.54504e-05	2572
bin	1.55216e-05	2510
bin	1.55928e-05	2570
bin	1.5664e-05	2583
bin	1.57352e-05	2502
bin	1.58064e-05	2551
bin	1.58776e-05	2461
bin	1.59488e-05	2501
bin	1.602e-05	2489
bin	1.60912e-05	2581
bin	1.61624e-05	2425
bin	1.62336e-05	2455
bin	1.63048e-05	2507
bin	1.6376e-05	2487
bin	1.64472e-05	2471
bin	1.65184e-05	2424
bin	1.65896e-05	2524
bin	1.66608e-05	2466
bin	1.6732e-05	2484
bin	1.68032e-05	2411
bin	1.68744e-05	2499
bin	1.69456e-05	2492
bin	1.70168e-05	2443
bin	1.7088e-05	2411
bin	1.71592e-05	2325
bin	1.72304e-05	2266
bin	1.73016e-05	2303
bin	1.73728e-05	2323
bin	1.7444e-05	2305
bin	1.75152e-05	2339
bin	1.75864e-05	2436
bin	1.76576e-05	2341
bin	1.77288e-05	2335
bin	1.78e-05	2336
bin	1.78712e-05	2281
bin	1.79424e-05	2311
bin	1.80136e-05	2301
bin	1.80848e-05	2364
bin	1.8156e-05	2390
bin	1.82272e-05	2303
bin	1.82984e-05	2239
bin	1.83696e-05	2274
bin	1.84408e-05	2355
bin	1.8512e-05	2360
bin	1.85832e-05	2413
bin	1.86544e-05	2420
bin	1.87256e-05	2316
bin	1.87968e-05	2375
bin	1.8868e-05	2360
bin	1.89392e-05	2366
bin	1.90104e-05	2356
bin	1.90816e-05	2369
bin	1.91528e-05	2275
bin	1.9224e-05	2347
bin	1.92952e-05	2339
bin	1.93664e-05	2274
bin	1.94376e-05	2266
bin	1.95088e-05	2348
bin	1.958e-05	2298
bin	1.96512e-05	2292
bin	1.97224e-05	2211
bin	1.97936e-05	2234
bin	1.98648e-05	2186
bin	1.9936e-05	2149
bin	2.00072e-05	2122
bin	2.00784e-05	2134
bin	2.01496e-05	2110
bin	2.02208e-05	2101
bin	2.0292e-05	2090
bin	2.03632e-05	2037
bin	2.04344e-05	2000
bin	2.05056e-05	2119
bin	2.05768e-05	2072
bin	2.0648e-05	2069
bin	2.07192e-05	2059
bin	2.07904e-05	2049
bin	2.08616e-05	2049
bin	2.09328e-05	2168
bin	2.1004e-05	2080
bin	2.10752e-05	2098
bin	2.11464e-05	2153
bin	2.12176e-05	2091
bin	2.12888e-05	2091
bin	2.136e-05	2076
bin	2.14312e-05	2080
bin	2.15024e-05	2037
bin	2.15736e-05	2005
bin	2.16448e-05	1992
bin	2.1716e-05	1977
bin	2.17872e-05	2036
bin	2.18584e-05	1959
bin	2.19296e-05	2035
bin	2.20008e-05	1961
bin	2.2072e-05	2005
bin	2.21432e-05	1980
bin	2.22144e-05	1984
bin	2.22856e-05	1950
bin	2.23568e-05	2004
bin	2.2428e-05	2035
bin	2.24992e-05	2047
bin	2.25704e-05	1981
bin	2.26416e-05	2040
bin	2.27128e-05	1983
bin	2.2784e-05	1996
bin	2.28552e-05	1984
bin	2.29264e-05	1935
bin	2.29976e-05	1920
bin	2.30688e-05	1912
bin	2.314e-05	1885
bin	2.32112e-05	1961
bin	2.32824e-05	1989
bin	2.33536e-05	2011
bin	2.34248e-05	1926
bin	2.3496e-05	1875
bin	2.35672e-05	1834
bin	2.36384e-05	1835
bin	2.37096e-05	1867
bin	2.37808e-05	1950
bin	2.3852e-05	1798
bin	2.39232e-05	1884
bin	2.39944e-05	1827
bin	2.40656e-05	1832
bin	2.41368e-05	1862
bin	2.4208e-05	1834
bin	2.42792e-05	1904
bin	2.43504e-05	1882
bin	2.44216e-05	1755
bin	2.44928e-05	1827
bin	2.4564e-05	1855
bin	2.46352e-05	1846
bin	2.47064e-05	1771
bin	2.47776e-05	1791
bin	2.48488e-05	1745
bin	2.492e-05	1852
bin	2.49912e-05	1802
bin	2.50624e-05	1841
bin	2.51336e-05	1812
bin	2.52048e-05	1806
bin	2.5276e-05	1866
bin	2.53472e-05	1820
bin	2.54184e-05	1813
bin	2.54896e-05	1843
bin	2.55608e-05	1778
bin	2.5632e-05	1765
bin	2.57032e-05	1782
bin	2.57744e-05	1764
bin	2.58456e-05	1753
bin	2.59168e-05	1767
bin	2.5988e-05	1854
bin	2.60592e-05	1767
bin	2.61304e-05	1771
bin	2.62016e-05	1734
bin	2.62728e-05	1693
bin	2.6344e-05	1756
bin	2.64152e-05	1762
bin	2.64864e-05	1798
bin	2.65576e-05	1768
bin	2.66288e-05	1797
bin	2.67e-05	1814
bin	2.67712e-05	1765
bin	2.68424e-05	1798
bin	2.69136e-05	1746
bin	2.69848e-05	1801
bin	2.7056e-05	1873
bin	2.71272e-05	1742
bin	2.71984e-05	1836
bin	2.72696e-05	1800
bin	2.73408e-05	1809
bin	2.7412e-05	1882
bin	2.74832e-05	1785
bin	2.75544e-05	1813
bin	2.76256e-05	1845
bin	2.76968e-05	1730
bin	2.7768e-05	1758
bin	2.78392e-05	1717
bin	2.79104e-05	1792
bin	2.79816e-05	1816
bin	2.80528e-05	1827
bin	2.8124e-05	1814
bin	2.81952e-05	1882
bin	2.82664e-05	1862
bin	2.83376e-05	1926
bin	2.84088e-05	1803
bin	2.848e-05	1793
bin	2.85512e-05	1775
bin	2.86224e-05	1860
bin	2.86936e-05	1892
bin	2.87648e-05	1783
bin	2.8836e-05	1762
bin	2.89072e-05	1819
bin	2.89784e-05	1725
bin	2.90496e-05	1753
bin	2.91208e-05	1750
bin	2.9192e-05	1732
bin	2.92632e-05	1758
bin	2.93344e-05	1694
bin	2.94056e-05	1760
bin	2.94768e-05	1752
bin	2.9548e-05	1793
bin	2.96192e-05	1693
bin	2.96904e-05	1715
bin	2.97616e-05	1705
bin	2.98328e-05	1680
bin	2.9904e-05	1637
bin	2.99752e-05	1686
bin	3.00464e-05	1707
bin	3.01176e-05	1694
bin	3.01888e-05	1669
bin	3.026e-05	1687
bin	3.03312e-05	1690
bin	3.04024e-05	1694
bin	3.04736e-05	1700
bin	3.05448e-05	1749
bin	3.0616e-05	1734
bin	3.06872e-05	1752
bin	3.07584e-05	1775
bin	3.08296e-05	1677
bin	3.09008e-05	1749
bin	3.0972e-05	1874
bin	3.10432e-05	1820
bin	3.11144e-05	1697
bin	3.11856e-05	1755
bin	3.12568e-05	1737
bin	3.1328e-05	1794
bin	3.13992e-05	1733
bin	3.14704e-05	1769
bin	3.15416e-05	1723
bin	3.16128e-05	1687
bin	3.1684e-05	1716
bin	3.17552e-05	1714
bin	3.18264e-05	1742
bin	3.18976e-05	1684
bin	3.19688e-05	1643
bin	3.204e-05	1615
bin	3.21112e-05	1618
bin	3.21824e-05	1570
bin	3.22536e-05	1610
bin	3.23248e-05	1615
bin	3.2396e-05	1608
bin	3.24672e-05	1716
bin	3.25384e-05	1644
bin	3.26096e-05	1578
bin	3.26808e-05	1646
bin	3.2752e-05	1692
bin	3.28232e-05	1676
bin	3.28944e-05	1646
bin	3.29656e-05	1582
bin	3.30368e-05	1658
bin	3.3108e-05	1650
bin	3.31792e-05	1607
bin	3.32504e-05	1654
bin	3.33216e-05	1709
bin	3.33928e-05	1642
bin	3.3464e-05	1645
bin	3.35352e-05	1631
bin	3.36064e-05	1655
bin	3.36776e-05	1634
bin	3.37488e-05	1645
bin	3.382e-05	1706
bin	3.38912e-05	1706
bin	3.39624e-05	1666
bin	3.40336e-05	1662
bin	3.41048e-05	1694
bin	3.4176e-05	1707
bin	3.42472e-05	1653
bin	3.43184e-05	1652
bin	3.43896e-05	1610
bin	3.44608e-05	1609
bin	3.4532e-05	1612
bin	3.46032e-05	1603
bin	3.46744e-05	1666
bin	3.47456e-05	1640
bin	3.48168e-05	1601
bin	3.4888e-05	1615
bin	3.49592e-05	1592
bin	3.50304e-05	1574
bin	3.51016e-05	1528
bin	3.51728e-05	1636
bin	3.5244e-05	1627
bin	3.53152e-05	1617
bin	3.53864e-05	1618
bin	3.54576e-05	1608
bin	3.55288e-05	1601
bin	3.56e-05	4244550
statistic Torus3d_bub.timer 	"Life Times"
field count 6291456
field mean 0.001109403717577
field stddev 0.00091943937936887
field sum 6979.7646753719
field sqrsum 13.061976468216
field min 3.77331845e-07
field max 0.003879896333237
bin	-INF	0
bin	0	6144
bin	8.544e-07	8192
bin	1.7088e-06	8627
bin	2.5632e-06	9464
bin	3.4176e-06	10293
bin	4.272e-06	11145
bin	5.1264e-06	12266
bin	5.9808e-06	13501
bin	6.8352e-06	14775
bin	7.6896e-06	16109
bin	8.544e-06	17495
bin	9.3984e-06	19168
bin	1.02528e-05	14547
bin	1.11072e-05	13512
bin	1.19616e-05	14562
bin	1.2816e-05	15412
bin	1.36704e-05	16046
bin	1.45248e-05	16724
bin	1.53792e-05	17395
bin	1.62336e-05	18217
bin	1.7088e-05	18329
bin	1.79424e-05	18818
bin	1.87968e-05	19187
bin	1.96512e-05	19656
bin	2.05056e-05	20153
bin	2.136e-05	20379
bin	2.22144e-05	20855
bin	2.30688e-05	21343
bin	2.39232e-05	21744
bin	2.47776e-05	22194
bin	2.5632e-05	22376
bin	2.64864e-05	22397
bin	2.73408e-05	22678
bin	2.81952e-05	22292
bin	2.90496e-05	22501
bin	2.9904e-05	21998
bin	3.07584e-05	21997
bin	3.16128e-05	21409
bin	3.24672e-05	20355
bin	3.33216e-05	19525
bin	3.4176e-05	18447
bin	3.50304e-05	17679
bin	3.58848e-05	16892
bin	3.67392e-05	15808
bin	3.75936e-05	15076
bin	3.8448e-05	14001
bin	3.93024e-05	13008
bin	4.01568e-05	12148
bin	4.10112e-05	11234
bin	4.18656e-05	10569
bin	4.272e-05	9908
bin	4.35744e-05	9611
bin	4.44288e-05	9320
bin	4.52832e-05	9002
bin	4.61376e-05	8813
bin	4.6992e-05	8552
bin	4.78464e-05	8189
bin	4.87008e-05	7936
bin	4.95552e-05	7810
bin	5.04096e-05	7630
bin	5.1264e-05	7511
bin	5.21184e-05	7487
bin	5.29728e-05	7465
bin	5.38272e-05	7343
bin	5.46816e-05	7255
bin	5.5536e-05	7201
bin	5.63904e-05	7042
bin	5.72448e-05	6964
bin	5.80992e-05	6836
bin	5.89536e-05	6994
bin	5.9808e-05	6942
bin	6.06624e-05	6974
bin	6.15168e-05	6923
bin	6.23712e-05	6864
bin	6.32256e-05	6813
bin	6.408e-05	6659
bin	6.49344e-05	6714
bin	6.57888e-05	6641
bin	6.66432e-05	6540
bin	6.74976e-05	6282
bin	6.8352e-05	6080
bin	6.92064e-05	5953
bin	7.00608e-05	5729
bin	7.09152e-05	5667
bin	7.17696e-05	5531
bin	7.2624e-05	5473
bin	7.34784e-05	5286
bin	7.43328e-05	5194
bin	7.51872e-05	5133
bin	7.60416e-05	4984
bin	7.6896e-05	4811
bin	7.77504e-05	4763
bin	7.86048e-05	4733
bin	7.94592e-05	4719
bin	8.03136e-05	4671
bin	8.1168e-05	4649
bin	8.20224e-05	4630
bin	8.28768e-05	4774
bin	8.37312e-05	4542
bin	8.45856e-05	4623
bin	8.544e-05	4638
bin	8.62944e-05	4767
bin	8.71488e-05	4683
bin	8.80032e-05	4577
bin	8.88576e-05	4683
bin	8.9712e-05	4652
bin	9.05664e-05	4685
bin	9.14208e-05	4666
bin	9.22752e-05	4681
bin	9.31296e-05	4681
bin	9.3984e-05	4631
bin	9.48384e-05	4704
bin	9.56928e-05	4637
bin	9.65472e-05	4523
bin	9.74016e-05	4547
bin	9.8256e-05	4499
bin	9.91104e-05	4347
bin	9.99648e-05	4370
bin	0.0001008192	4204
bin	0.0001016736	4215
bin	0.000102528	4046
bin	0.0001033824	3967
bin	0.0001042368	3930
bin	0.0001050912	3896
bin	0.0001059456	3901
bin	0.0001068	3882
bin	0.0001076544	3854
bin	0.0001085088	3684
bin	0.0001093632	3692
bin	0.0001102176	3701
bin	0.000111072	3609
bin	0.0001119264	3750
bin	0.0001127808	3711
bin	0.0001136352	3715
bin	0.0001144896	3702
bin	0.000115344	3610
bin	0.0001161984	3689
bin	0.0001170528	3590
bin	0.0001179072	3605
bin	0.0001187616	3593
bin	0.000119616	3708
bin	0.0001204704	3750
bin	0.0001213248	3719
bin	0.0001221792	3697
bin	0.0001230336	3752
bin	0.000123888	3654
bin	0.0001247424	3664
bin	0.0001255968	3820
bin	0.0001264512	3734
bin	0.0001273056	3699
bin	0.00012816	3632
bin	0.0001290144	3576
bin	0.0001298688	3444
bin	0.0001307232	3426
bin	0.0001315776	3471
bin	0.000132432	3334
bin	0.0001332864	3297
bin	0.0001341408	3179
bin	0.0001349952	3135
bin	0.0001358496	3075
bin	0.000136704	3111
bin	0.0001375584	2989
bin	0.0001384128	3154
bin	0.0001392672	3067
bin	0.0001401216	3055
bin	0.000140976	3073
bin	0.0001418304	3108
bin	0.0001426848	3057
bin	0.0001435392	3101
bin	0.0001443936	3101
bin	0.000145248	2956
bin	0.0001461024	3119
bin	0.0001469568	2992
bin	0.0001478112	3054
bin	0.0001486656	3036
bin	0.00014952	3084
bin	0.0001503744	2991
bin	0.0001512288	2987
bin	0.0001520832	3058
bin	0.0001529376	3083
bin	0.000153792	3073
bin	0.0001546464	3084
bin	0.0001555008	3134
bin	0.0001563552	3067
bin	0.0001572096	3111
bin	0.000158064	3062
bin	0.0001589184	3017
bin	0.0001597728	2986
bin	0.0001606272	2979
bin	0.0001614816	2813
bin	0.000162336	2840
bin	0.0001631904	2764
bin	0.0001640448	2720
bin	0.0001648992	2700
bin	0.0001657536	2593
bin	0.000166608	2675
bin	0.0001674624	2712
bin	0.0001683168	2613
bin	0.0001691712	2582
bin	0.0001700256	2579
bin	0.00017088	2523
bin	0.0001717344	2509
bin	0.0001725888	2577
bin	0.0001734432	2419
bin	0.0001742976	2522
bin	0.000175152	2538
bin	0.0001760064	2531
bin	0.0001768608	2557
bin	0.0001777152	2564
bin	0.0001785696	2526
bin	0.000179424	2580
bin	0.0001802784	2685
bin	0.0001811328	2573
bin	0.0001819872	2574
bin	0.0001828416	2615
bin	0.000183696	2607
bin	0.0001845504	2592
bin	0.0001854048	2701
bin	0.0001862592	2745
bin	0.0001871136	2650
bin	0.000187968	2700
bin	0.0001888224	2685
bin	0.0001896768	2635
bin	0.0001905312	2583
bin	0.0001913856	2518
bin	0.00019224	2518
bin	0.0001930944	2413
bin	0.0001939488	2456
bin	0.0001948032	2432
bin	0.0001956576	2418
bin	0.000196512	2444
bin	0.0001973664	2346
bin	0.0001982208	2313
bin	0.0001990752	2369
bin	0.0001999296	2310
bin	0.000200784	2341
bin	0.0002016384	2272
bin	0.0002024928	2344
bin	0.0002033472	2350
bin	0.0002042016	2340
bin	0.000205056	2399
bin	0.0002059104	2308
bin	0.0002067648	2320
bin	0.0002076192	2284
bin	0.0002084736	2393
bin	0.000209328	2432
bin	0.0002101824	2427
bin	0.0002110368	2490
bin	0.0002118912	2476
bin	0.0002127456	2451
bin	0.0002136	2484
bin	0.0002144544	2512
bin	0.0002153088	2477
bin	0.0002161632	2516
bin	0.0002170176	2532
bin	0.000217872	2518
bin	0.0002187264	2508
bin	0.0002195808	2497
bin	0.0002204352	2522
bin	0.0002212896	2440
bin	0.000222144	2408
bin	0.0002229984	2340
bin	0.0002238528	2381
bin	0.0002247072	2388
bin	0.0002255616	2344
bin	0.000226416	2318
bin	0.0002272704	2279
bin	0.0002281248	2221
bin	0.0002289792	2218
bin	0.0002298336	2223
bin	0.000230688	2213
bin	0.0002315424	2229
bin	0.0002323968	2175
bin	0.0002332512	2135
bin	0.0002341056	2162
bin	0.00023496	2237
bin	0.0002358144	2219
bin	0.0002366688	2126
bin	0.0002375232	2193
bin	0.0002383776	2184
bin	0.000239232	2175
bin	0.0002400864	2219
bin	0.0002409408	2259
bin	0.0002417952	2261
bin	0.0002426496	2314
bin	0.000243504	2378
bin	0.0002443584	2347
bin	0.0002452128	2243
bin	0.0002460672	2310
bin	0.0002469216	2350
bin	0.000247776	2302
bin	0.0002486304	2383
bin	0.0002494848	2339
bin	0.0002503392	2344
bin	0.0002511936	2298
bin	0.000252048	2230
bin	0.0002529024	2207
bin	0.0002537568	2234
bin	0.0002546112	2130
bin	0.0002554656	2196
bin	0.00025632	2102
bin	0.0002571744	2042
bin	0.0002580288	2118
bin	0.0002588832	2060
bin	0.0002597376	2099
bin	0.000260592	2046
bin	0.0002614464	2116
bin	0.0002623008	1945
bin	0.0002631552	2065
bin	0.0002640096	1988
bin	0.000264864	2044
bin	0.0002657184	2068
bin	0.0002665728	2052
bin	0.0002674272	2128
bin	0.0002682816	2172
bin	0.000269136	2156
bin	0.0002699904	2277
bin	0.0002708448	2190
bin	0.0002716992	2193
bin	0.0002725536	2224
bin	0.000273408	2218
bin	0.0002742624	2195
bin	0.0002751168	2221
bin	0.0002759712	2201
bin	0.0002768256	2147
bin	0.00027768	2245
bin	0.0002785344	2195
bin	0.0002793888	2215
bin	0.0002802432	2143
bin	0.0002810976	2118
bin	0.000281952	2168
bin	0.0002828064	2171
bin	0.0002836608	2113
bin	0.0002845152	2142
bin	0.0002853696	2142
bin	0.000286224	2041
bin	0.0002870784	2034
bin	0.0002879328	2013
bin	0.0002887872	1923
bin	0.0002896416	1896
bin	0.000290496	1993
bin	0.0002913504	1899
bin	0.0002922048	1910
bin	0.0002930592	1853
bin	0.0002939136	1928
bin	0.000294768	1964
bin	0.0002956224	1960
bin	0.0002964768	1926
bin	0.0002973312	1966
bin	0.0002981856	1944
bin	0.00029904	1944
bin	0.0002998944	1921
bin	0.0003007488	1921
bin	0.0003016032	1957
bin	0.0003024576	1995
bin	0.000303312	2041
bin	0.0003041664	2005
bin	0.0003050208	1995
bin	0.0003058752	1953
bin	0.0003067296	2058
bin	0.000307584	2057
bin	0.0003084384	1961
bin	0.0003092928	1998
bin	0.0003101472	2021
bin	0.0003110016	2073
bin	0.000311856	2115
bin	0.0003127104	2002
bin	0.0003135648	2099
bin	0.0003144192	2047
bin	0.0003152736	2046
bin	0.000316128	1990
bin	0.0003169824	1943
bin	0.0003178368	1935
bin	0.0003186912	1847
bin	0.0003195456	1862
bin	0.0003204	1837
bin	0.0003212544	1773
bin	0.0003221088	1747
bin	0.0003229632	1720
bin	0.0003238176	1759
bin	0.000324672	1699
bin	0.0003255264	1699
bin	0.0003263808	1674
bin	0.0003272352	1751
bin	0.0003280896	1748
bin	0.000328944	1712
bin	0.0003297984	1810
bin	0.0003306528	1809
bin	0.0003315072	1788
bin	0.0003323616	1803
bin	0.000333216	1798
bin	0.0003340704	1767
bin	0.0003349248	1793
bin	0.0003357792	1809
bin	0.0003366336	1843
bin	0.000337488	1838
bin	0.0003383424	1929
bin	0.0003391968	1935
bin	0.0003400512	1915
bin	0.0003409056	1911
bin	0.00034176	1949
bin	0.0003426144	1905
bin	0.0003434688	1911
bin	0.0003443232	1924
bin	0.0003451776	1856
bin	0.000346032	1843
bin	0.0003468864	1795
bin	0.0003477408	1802
bin	0.0003485952	1721
bin	0.0003494496	1676
bin	0.000350304	1685
bin	0.0003511584	1710
bin	0.0003520128	1677
bin	0.0003528672	1697
bin	0.0003537216	1670
bin	0.000354576	1658
bin	0.0003554304	1684
bin	0.0003562848	1606
bin	0.0003571392	1617
bin	0.0003579936	1661
bin	0.000358848	1646
bin	0.0003597024	1623
bin	0.0003605568	1688
bin	0.0003614112	1667
bin	0.0003622656	1690
bin	0.00036312	1659
bin	0.0003639744	1680
bin	0.0003648288	1723
bin	0.0003656832	1702
bin	0.0003665376	1752
bin	0.000367392	1758
bin	0.0003682464	1782
bin	0.0003691008	1803
bin	0.0003699552	1714
bin	0.0003708096	1836
bin	0.000371664	1878
bin	0.0003725184	1826
bin	0.0003733728	1760
bin	0.0003742272	1783
bin	0.0003750816	1770
bin	0.000375936	1757
bin	0.0003767904	1735
bin	0.0003776448	1724
bin	0.0003784992	1681
bin	0.0003793536	1674
bin	0.000380208	1660
bin	0.0003810624	1574
bin	0.0003819168	1658
bin	0.0003827712	1610
bin	0.0003836256	1600
bin	0.00038448	1546
bin	0.0003853344	1586
bin	0.0003861888	1515
bin	0.0003870432	1491
bin	0.0003878976	1536
bin	0.000388752	1496
bin	0.0003896064	1538
bin	0.0003904608	1506
bin	0.0003913152	1481
bin	0.0003921696	1539
bin	0.000393024	1611
bin	0.0003938784	1535
bin	0.0003947328	1536
bin	0.0003955872	1547
bin	0.0003964416	1618
bin	0.000397296	1551
bin	0.0003981504	1580
bin	0.0003990048	1572
bin	0.0003998592	1610
bin	0.0004007136	1623
bin	0.000401568	1537
bin	0.0004024224	1574
bin	0.0004032768	1594
bin	0.0004041312	1655
bin	0.0004049856	1582
bin	0.00040584	1586
bin	0.0004066944	1545
bin	0.0004075488	1571
bin	0.0004084032	1504
bin	0.0004092576	1540
bin	0.000410112	1487
bin	0.0004109664	1476
bin	0.0004118208	1473
bin	0.0004126752	1480
bin	0.0004135296	1532
bin	0.000414384	1478
bin	0.0004152384	1457
bin	0.0004160928	1501
bin	0.0004169472	1448
bin	0.0004178016	1461
bin	0.000418656	1439
bin	0.0004195104	1528
bin	0.0004203648	1514
bin	0.0004212192	1535
bin	0.0004220736	1586
bin	0.000422928	1578
bin	0.0004237824	1580
bin	0.0004246368	1652
bin	0.0004254912	1591
bin	0.0004263456	1658
bin	0.0004272	4166971
