version 2
run Transposition-13-20120710-08:20:25-25267
attr alg 1
attr buf 8
attr configname Transposition
attr datetime 20120710-08:20:25
attr delta 0.8
attr experiment Transposition
attr ext true
attr inifile altro.ini
attr iterationvars "$buf=8, $ext=true, $ofedge=1, $delta=0.8, $alg=1"
attr iterationvars2 "$buf=8, $ext=true, $ofedge=1, $delta=0.8, $alg=1, $repetition=0"
attr measurement "$buf=8, $ext=true, $ofedge=1, $delta=0.8, $alg=1"
attr network Torus3d_bub
attr ofedge 1
attr processid 25267
attr repetition 0
attr replication #0
attr resultdir altro-results
attr runnumber 13
attr seedset 13

scalar . 	alg 	1
scalar . 	buf 	8
scalar . 	delta 	0.8
scalar . 	ofedge 	1
scalar Torus3d_bub.timer 	#endTime 	0.006055188324343
scalar Torus3d_bub.timer 	#totalHops 	85629420
scalar Torus3d_bub.timer 	#totalPacks 	6291456
scalar Torus3d_bub.timer 	#totalDerouted 	2325397
scalar Torus3d_bub.timer 	#totalOutFlanked 	2325397
scalar Torus3d_bub.timer 	#totalCQRed 	0
scalar Torus3d_bub.timer 	#LB 	0.000786432
scalar Torus3d_bub.timer 	#ratio 	0.12987738083032
statistic Torus3d_bub.timer 	"Hop Times"
field count 6193152
field mean 0.00019225487677017
field stddev 0.00014112757963452
field sum 1190.6636745789
field sqrsum 0.3522598476885
field min 3.97925925e-07
field max 0.001115866664988
bin	-INF	0
bin	0	0
bin	7.12e-08	0
bin	1.424e-07	0
bin	2.136e-07	0
bin	2.848e-07	0
bin	3.56e-07	26
bin	4.272e-07	806
bin	4.984e-07	2159
bin	5.696e-07	3416
bin	6.408e-07	4589
bin	7.12e-07	5857
bin	7.832e-07	6831
bin	8.544e-07	7718
bin	9.256e-07	8449
bin	9.968e-07	9140
bin	1.068e-06	9405
bin	1.1392e-06	9980
bin	1.2104e-06	10831
bin	1.2816e-06	11739
bin	1.3528e-06	12886
bin	1.424e-06	14161
bin	1.4952e-06	15302
bin	1.5664e-06	16202
bin	1.6376e-06	17178
bin	1.7088e-06	17527
bin	1.78e-06	18100
bin	1.8512e-06	18439
bin	1.9224e-06	18452
bin	1.9936e-06	18139
bin	2.0648e-06	17875
bin	2.136e-06	17408
bin	2.2072e-06	16715
bin	2.2784e-06	16371
bin	2.3496e-06	15867
bin	2.4208e-06	15163
bin	2.492e-06	14414
bin	2.5632e-06	14072
bin	2.6344e-06	13189
bin	2.7056e-06	12573
bin	2.7768e-06	12008
bin	2.848e-06	11388
bin	2.9192e-06	10946
bin	2.9904e-06	10106
bin	3.0616e-06	9656
bin	3.1328e-06	9089
bin	3.204e-06	8655
bin	3.2752e-06	8153
bin	3.3464e-06	7894
bin	3.4176e-06	7520
bin	3.4888e-06	7244
bin	3.56e-06	6883
bin	3.6312e-06	6578
bin	3.7024e-06	6358
bin	3.7736e-06	5959
bin	3.8448e-06	5658
bin	3.916e-06	5513
bin	3.9872e-06	5173
bin	4.0584e-06	4997
bin	4.1296e-06	4859
bin	4.2008e-06	4604
bin	4.272e-06	4401
bin	4.3432e-06	4262
bin	4.4144e-06	4077
bin	4.4856e-06	3979
bin	4.5568e-06	3892
bin	4.628e-06	3827
bin	4.6992e-06	3645
bin	4.7704e-06	3465
bin	4.8416e-06	3465
bin	4.9128e-06	3385
bin	4.984e-06	3319
bin	5.0552e-06	3281
bin	5.1264e-06	3217
bin	5.1976e-06	3065
bin	5.2688e-06	3031
bin	5.34e-06	3055
bin	5.4112e-06	2940
bin	5.4824e-06	2886
bin	5.5536e-06	2820
bin	5.6248e-06	2796
bin	5.696e-06	2759
bin	5.7672e-06	2674
bin	5.8384e-06	2651
bin	5.9096e-06	2515
bin	5.9808e-06	2475
bin	6.052e-06	2500
bin	6.1232e-06	2453
bin	6.1944e-06	2334
bin	6.2656e-06	2390
bin	6.3368e-06	2309
bin	6.408e-06	2273
bin	6.4792e-06	2347
bin	6.5504e-06	2221
bin	6.6216e-06	2183
bin	6.6928e-06	2224
bin	6.764e-06	2118
bin	6.8352e-06	2073
bin	6.9064e-06	2071
bin	6.9776e-06	2080
bin	7.0488e-06	1985
bin	7.12e-06	1935
bin	7.1912e-06	1849
bin	7.2624e-06	1877
bin	7.3336e-06	1864
bin	7.4048e-06	1798
bin	7.476e-06	1822
bin	7.5472e-06	1717
bin	7.6184e-06	1642
bin	7.6896e-06	1542
bin	7.7608e-06	1534
bin	7.832e-06	1528
bin	7.9032e-06	1573
bin	7.9744e-06	1537
bin	8.0456e-06	1508
bin	8.1168e-06	1504
bin	8.188e-06	1432
bin	8.2592e-06	1441
bin	8.3304e-06	1453
bin	8.4016e-06	1375
bin	8.4728e-06	1420
bin	8.544e-06	1459
bin	8.6152e-06	1425
bin	8.6864e-06	1432
bin	8.7576e-06	1448
bin	8.8288e-06	1381
bin	8.9e-06	1392
bin	8.9712e-06	1393
bin	9.0424e-06	1384
bin	9.1136e-06	1331
bin	9.1848e-06	1320
bin	9.256e-06	1364
bin	9.3272e-06	1353
bin	9.3984e-06	1402
bin	9.4696e-06	1353
bin	9.5408e-06	1339
bin	9.612e-06	1322
bin	9.6832e-06	1294
bin	9.7544e-06	1292
bin	9.8256e-06	1237
bin	9.8968e-06	1261
bin	9.968e-06	1319
bin	1.00392e-05	1310
bin	1.01104e-05	1324
bin	1.01816e-05	1217
bin	1.02528e-05	1184
bin	1.0324e-05	1163
bin	1.03952e-05	1148
bin	1.04664e-05	1161
bin	1.05376e-05	1079
bin	1.06088e-05	1102
bin	1.068e-05	1047
bin	1.07512e-05	1094
bin	1.08224e-05	1105
bin	1.08936e-05	1064
bin	1.09648e-05	1044
bin	1.1036e-05	1087
bin	1.11072e-05	1055
bin	1.11784e-05	1070
bin	1.12496e-05	1091
bin	1.13208e-05	1082
bin	1.1392e-05	1103
bin	1.14632e-05	1174
bin	1.15344e-05	1138
bin	1.16056e-05	1198
bin	1.16768e-05	1085
bin	1.1748e-05	1114
bin	1.18192e-05	1084
bin	1.18904e-05	1052
bin	1.19616e-05	1091
bin	1.20328e-05	1044
bin	1.2104e-05	989
bin	1.21752e-05	1022
bin	1.22464e-05	1057
bin	1.23176e-05	1040
bin	1.23888e-05	1041
bin	1.246e-05	1002
bin	1.25312e-05	992
bin	1.26024e-05	1050
bin	1.26736e-05	1001
bin	1.27448e-05	954
bin	1.2816e-05	999
bin	1.28872e-05	991
bin	1.29584e-05	982
bin	1.30296e-05	960
bin	1.31008e-05	951
bin	1.3172e-05	913
bin	1.32432e-05	949
bin	1.33144e-05	930
bin	1.33856e-05	894
bin	1.34568e-05	926
bin	1.3528e-05	886
bin	1.35992e-05	893
bin	1.36704e-05	880
bin	1.37416e-05	886
bin	1.38128e-05	882
bin	1.3884e-05	877
bin	1.39552e-05	842
bin	1.40264e-05	886
bin	1.40976e-05	858
bin	1.41688e-05	882
bin	1.424e-05	889
bin	1.43112e-05	909
bin	1.43824e-05	873
bin	1.44536e-05	812
bin	1.45248e-05	852
bin	1.4596e-05	847
bin	1.46672e-05	814
bin	1.47384e-05	807
bin	1.48096e-05	816
bin	1.48808e-05	850
bin	1.4952e-05	833
bin	1.50232e-05	856
bin	1.50944e-05	820
bin	1.51656e-05	793
bin	1.52368e-05	810
bin	1.5308e-05	809
bin	1.53792e-05	788
bin	1.54504e-05	830
bin	1.55216e-05	802
bin	1.55928e-05	778
bin	1.5664e-05	792
bin	1.57352e-05	845
bin	1.58064e-05	871
bin	1.58776e-05	812
bin	1.59488e-05	819
bin	1.602e-05	816
bin	1.60912e-05	801
bin	1.61624e-05	808
bin	1.62336e-05	761
bin	1.63048e-05	812
bin	1.6376e-05	808
bin	1.64472e-05	889
bin	1.65184e-05	817
bin	1.65896e-05	838
bin	1.66608e-05	803
bin	1.6732e-05	800
bin	1.68032e-05	865
bin	1.68744e-05	829
bin	1.69456e-05	784
bin	1.70168e-05	798
bin	1.7088e-05	801
bin	1.71592e-05	785
bin	1.72304e-05	762
bin	1.73016e-05	793
bin	1.73728e-05	782
bin	1.7444e-05	784
bin	1.75152e-05	795
bin	1.75864e-05	818
bin	1.76576e-05	801
bin	1.77288e-05	760
bin	1.78e-05	742
bin	1.78712e-05	745
bin	1.79424e-05	759
bin	1.80136e-05	748
bin	1.80848e-05	776
bin	1.8156e-05	748
bin	1.82272e-05	765
bin	1.82984e-05	737
bin	1.83696e-05	765
bin	1.84408e-05	726
bin	1.8512e-05	780
bin	1.85832e-05	785
bin	1.86544e-05	776
bin	1.87256e-05	806
bin	1.87968e-05	764
bin	1.8868e-05	802
bin	1.89392e-05	764
bin	1.90104e-05	791
bin	1.90816e-05	766
bin	1.91528e-05	773
bin	1.9224e-05	794
bin	1.92952e-05	761
bin	1.93664e-05	751
bin	1.94376e-05	736
bin	1.95088e-05	755
bin	1.958e-05	679
bin	1.96512e-05	680
bin	1.97224e-05	695
bin	1.97936e-05	695
bin	1.98648e-05	674
bin	1.9936e-05	668
bin	2.00072e-05	667
bin	2.00784e-05	683
bin	2.01496e-05	672
bin	2.02208e-05	669
bin	2.0292e-05	662
bin	2.03632e-05	608
bin	2.04344e-05	627
bin	2.05056e-05	648
bin	2.05768e-05	618
bin	2.0648e-05	632
bin	2.07192e-05	731
bin	2.07904e-05	692
bin	2.08616e-05	731
bin	2.09328e-05	701
bin	2.1004e-05	673
bin	2.10752e-05	669
bin	2.11464e-05	679
bin	2.12176e-05	712
bin	2.12888e-05	688
bin	2.136e-05	690
bin	2.14312e-05	693
bin	2.15024e-05	695
bin	2.15736e-05	682
bin	2.16448e-05	661
bin	2.1716e-05	665
bin	2.17872e-05	685
bin	2.18584e-05	706
bin	2.19296e-05	767
bin	2.20008e-05	727
bin	2.2072e-05	751
bin	2.21432e-05	710
bin	2.22144e-05	722
bin	2.22856e-05	680
bin	2.23568e-05	637
bin	2.2428e-05	669
bin	2.24992e-05	697
bin	2.25704e-05	622
bin	2.26416e-05	615
bin	2.27128e-05	637
bin	2.2784e-05	622
bin	2.28552e-05	648
bin	2.29264e-05	650
bin	2.29976e-05	650
bin	2.30688e-05	630
bin	2.314e-05	616
bin	2.32112e-05	594
bin	2.32824e-05	610
bin	2.33536e-05	619
bin	2.34248e-05	631
bin	2.3496e-05	633
bin	2.35672e-05	652
bin	2.36384e-05	593
bin	2.37096e-05	578
bin	2.37808e-05	642
bin	2.3852e-05	628
bin	2.39232e-05	616
bin	2.39944e-05	640
bin	2.40656e-05	628
bin	2.41368e-05	638
bin	2.4208e-05	620
bin	2.42792e-05	597
bin	2.43504e-05	647
bin	2.44216e-05	640
bin	2.44928e-05	646
bin	2.4564e-05	629
bin	2.46352e-05	647
bin	2.47064e-05	605
bin	2.47776e-05	624
bin	2.48488e-05	638
bin	2.492e-05	670
bin	2.49912e-05	637
bin	2.50624e-05	666
bin	2.51336e-05	624
bin	2.52048e-05	633
bin	2.5276e-05	638
bin	2.53472e-05	654
bin	2.54184e-05	622
bin	2.54896e-05	614
bin	2.55608e-05	602
bin	2.5632e-05	622
bin	2.57032e-05	630
bin	2.57744e-05	630
bin	2.58456e-05	607
bin	2.59168e-05	585
bin	2.5988e-05	605
bin	2.60592e-05	587
bin	2.61304e-05	606
bin	2.62016e-05	608
bin	2.62728e-05	650
bin	2.6344e-05	626
bin	2.64152e-05	638
bin	2.64864e-05	623
bin	2.65576e-05	649
bin	2.66288e-05	649
bin	2.67e-05	645
bin	2.67712e-05	604
bin	2.68424e-05	618
bin	2.69136e-05	641
bin	2.69848e-05	590
bin	2.7056e-05	640
bin	2.71272e-05	609
bin	2.71984e-05	587
bin	2.72696e-05	646
bin	2.73408e-05	588
bin	2.7412e-05	610
bin	2.74832e-05	616
bin	2.75544e-05	592
bin	2.76256e-05	622
bin	2.76968e-05	660
bin	2.7768e-05	668
bin	2.78392e-05	670
bin	2.79104e-05	621
bin	2.79816e-05	626
bin	2.80528e-05	653
bin	2.8124e-05	631
bin	2.81952e-05	628
bin	2.82664e-05	639
bin	2.83376e-05	641
bin	2.84088e-05	618
bin	2.848e-05	583
bin	2.85512e-05	617
bin	2.86224e-05	621
bin	2.86936e-05	637
bin	2.87648e-05	578
bin	2.8836e-05	608
bin	2.89072e-05	634
bin	2.89784e-05	608
bin	2.90496e-05	653
bin	2.91208e-05	604
bin	2.9192e-05	640
bin	2.92632e-05	597
bin	2.93344e-05	593
bin	2.94056e-05	603
bin	2.94768e-05	560
bin	2.9548e-05	605
bin	2.96192e-05	618
bin	2.96904e-05	593
bin	2.97616e-05	616
bin	2.98328e-05	601
bin	2.9904e-05	544
bin	2.99752e-05	603
bin	3.00464e-05	566
bin	3.01176e-05	585
bin	3.01888e-05	608
bin	3.026e-05	585
bin	3.03312e-05	596
bin	3.04024e-05	627
bin	3.04736e-05	634
bin	3.05448e-05	671
bin	3.0616e-05	650
bin	3.06872e-05	635
bin	3.07584e-05	626
bin	3.08296e-05	647
bin	3.09008e-05	639
bin	3.0972e-05	603
bin	3.10432e-05	632
bin	3.11144e-05	679
bin	3.11856e-05	645
bin	3.12568e-05	619
bin	3.1328e-05	621
bin	3.13992e-05	588
bin	3.14704e-05	588
bin	3.15416e-05	613
bin	3.16128e-05	554
bin	3.1684e-05	560
bin	3.17552e-05	606
bin	3.18264e-05	583
bin	3.18976e-05	561
bin	3.19688e-05	567
bin	3.204e-05	581
bin	3.21112e-05	585
bin	3.21824e-05	603
bin	3.22536e-05	592
bin	3.23248e-05	615
bin	3.2396e-05	624
bin	3.24672e-05	618
bin	3.25384e-05	596
bin	3.26096e-05	619
bin	3.26808e-05	625
bin	3.2752e-05	610
bin	3.28232e-05	575
bin	3.28944e-05	571
bin	3.29656e-05	592
bin	3.30368e-05	586
bin	3.3108e-05	611
bin	3.31792e-05	651
bin	3.32504e-05	636
bin	3.33216e-05	635
bin	3.33928e-05	561
bin	3.3464e-05	591
bin	3.35352e-05	609
bin	3.36064e-05	556
bin	3.36776e-05	528
bin	3.37488e-05	625
bin	3.382e-05	583
bin	3.38912e-05	576
bin	3.39624e-05	598
bin	3.40336e-05	607
bin	3.41048e-05	574
bin	3.4176e-05	573
bin	3.42472e-05	594
bin	3.43184e-05	599
bin	3.43896e-05	596
bin	3.44608e-05	585
bin	3.4532e-05	582
bin	3.46032e-05	596
bin	3.46744e-05	604
bin	3.47456e-05	609
bin	3.48168e-05	586
bin	3.4888e-05	583
bin	3.49592e-05	625
bin	3.50304e-05	635
bin	3.51016e-05	642
bin	3.51728e-05	608
bin	3.5244e-05	647
bin	3.53152e-05	623
bin	3.53864e-05	660
bin	3.54576e-05	680
bin	3.55288e-05	633
bin	3.56e-05	5184450
statistic Torus3d_bub.timer 	"Life Times"
field count 6291456
field mean 0.0024986124154492
field stddev 0.0015959793358411
field sum 15719.910072853
field sqrsum 55.303242335399
field min 3.77331845e-07
field max 0.005961213324343
bin	-INF	0
bin	0	6132
bin	8.544e-07	8176
bin	1.7088e-06	8551
bin	2.5632e-06	10027
bin	3.4176e-06	11008
bin	4.272e-06	12142
bin	5.1264e-06	13293
bin	5.9808e-06	14222
bin	6.8352e-06	15179
bin	7.6896e-06	16370
bin	8.544e-06	17156
bin	9.3984e-06	18137
bin	1.02528e-05	12819
bin	1.11072e-05	11552
bin	1.19616e-05	12107
bin	1.2816e-05	12612
bin	1.36704e-05	13156
bin	1.45248e-05	13417
bin	1.53792e-05	13472
bin	1.62336e-05	13840
bin	1.7088e-05	13890
bin	1.79424e-05	14074
bin	1.87968e-05	14076
bin	1.96512e-05	14069
bin	2.05056e-05	14639
bin	2.136e-05	14576
bin	2.22144e-05	14949
bin	2.30688e-05	15523
bin	2.39232e-05	16051
bin	2.47776e-05	16582
bin	2.5632e-05	16854
bin	2.64864e-05	16973
bin	2.73408e-05	17132
bin	2.81952e-05	17114
bin	2.90496e-05	16739
bin	2.9904e-05	16660
bin	3.07584e-05	16269
bin	3.16128e-05	16036
bin	3.24672e-05	15052
bin	3.33216e-05	14149
bin	3.4176e-05	13074
bin	3.50304e-05	12339
bin	3.58848e-05	11323
bin	3.67392e-05	10334
bin	3.75936e-05	9475
bin	3.8448e-05	8438
bin	3.93024e-05	7518
bin	4.01568e-05	6835
bin	4.10112e-05	6318
bin	4.18656e-05	5516
bin	4.272e-05	4963
bin	4.35744e-05	4635
bin	4.44288e-05	4317
bin	4.52832e-05	4097
bin	4.61376e-05	3867
bin	4.6992e-05	3687
bin	4.78464e-05	3644
bin	4.87008e-05	3615
bin	4.95552e-05	3515
bin	5.04096e-05	3545
bin	5.1264e-05	3491
bin	5.21184e-05	3475
bin	5.29728e-05	3406
bin	5.38272e-05	3353
bin	5.46816e-05	3263
bin	5.5536e-05	3360
bin	5.63904e-05	3381
bin	5.72448e-05	3277
bin	5.80992e-05	3328
bin	5.89536e-05	3377
bin	5.9808e-05	3381
bin	6.06624e-05	3476
bin	6.15168e-05	3442
bin	6.23712e-05	3414
bin	6.32256e-05	3401
bin	6.408e-05	3245
bin	6.49344e-05	3293
bin	6.57888e-05	3177
bin	6.66432e-05	2937
bin	6.74976e-05	2788
bin	6.8352e-05	2663
bin	6.92064e-05	2465
bin	7.00608e-05	2501
bin	7.09152e-05	2265
bin	7.17696e-05	2203
bin	7.2624e-05	2125
bin	7.34784e-05	2081
bin	7.43328e-05	1886
bin	7.51872e-05	1940
bin	7.60416e-05	1823
bin	7.6896e-05	1681
bin	7.77504e-05	1730
bin	7.86048e-05	1785
bin	7.94592e-05	1757
bin	8.03136e-05	1753
bin	8.1168e-05	1707
bin	8.20224e-05	1714
bin	8.28768e-05	1722
bin	8.37312e-05	1740
bin	8.45856e-05	1745
bin	8.544e-05	1771
bin	8.62944e-05	1770
bin	8.71488e-05	1936
bin	8.80032e-05	1905
bin	8.88576e-05	1935
bin	8.9712e-05	1874
bin	9.05664e-05	1897
bin	9.14208e-05	1868
bin	9.22752e-05	1852
bin	9.31296e-05	1880
bin	9.3984e-05	1804
bin	9.48384e-05	1832
bin	9.56928e-05	1788
bin	9.65472e-05	1831
bin	9.74016e-05	1792
bin	9.8256e-05	1646
bin	9.91104e-05	1626
bin	9.99648e-05	1522
bin	0.0001008192	1453
bin	0.0001016736	1465
bin	0.000102528	1409
bin	0.0001033824	1332
bin	0.0001042368	1368
bin	0.0001050912	1259
bin	0.0001059456	1209
bin	0.0001068	1200
bin	0.0001076544	1174
bin	0.0001085088	1157
bin	0.0001093632	1197
bin	0.0001102176	1178
bin	0.000111072	1224
bin	0.0001119264	1200
bin	0.0001127808	1254
bin	0.0001136352	1257
bin	0.0001144896	1276
bin	0.000115344	1272
bin	0.0001161984	1270
bin	0.0001170528	1252
bin	0.0001179072	1303
bin	0.0001187616	1306
bin	0.000119616	1253
bin	0.0001204704	1331
bin	0.0001213248	1303
bin	0.0001221792	1323
bin	0.0001230336	1292
bin	0.000123888	1319
bin	0.0001247424	1357
bin	0.0001255968	1301
bin	0.0001264512	1303
bin	0.0001273056	1284
bin	0.00012816	1202
bin	0.0001290144	1168
bin	0.0001298688	1129
bin	0.0001307232	1140
bin	0.0001315776	1111
bin	0.000132432	1112
bin	0.0001332864	1034
bin	0.0001341408	968
bin	0.0001349952	953
bin	0.0001358496	958
bin	0.000136704	921
bin	0.0001375584	909
bin	0.0001384128	932
bin	0.0001392672	911
bin	0.0001401216	923
bin	0.000140976	925
bin	0.0001418304	898
bin	0.0001426848	932
bin	0.0001435392	895
bin	0.0001443936	965
bin	0.000145248	1001
bin	0.0001461024	972
bin	0.0001469568	1016
bin	0.0001478112	1053
bin	0.0001486656	1057
bin	0.00014952	1136
bin	0.0001503744	1068
bin	0.0001512288	1079
bin	0.0001520832	1086
bin	0.0001529376	1085
bin	0.000153792	1110
bin	0.0001546464	1079
bin	0.0001555008	1100
bin	0.0001563552	1104
bin	0.0001572096	1064
bin	0.000158064	1043
bin	0.0001589184	1031
bin	0.0001597728	999
bin	0.0001606272	964
bin	0.0001614816	936
bin	0.000162336	885
bin	0.0001631904	862
bin	0.0001640448	852
bin	0.0001648992	841
bin	0.0001657536	866
bin	0.000166608	826
bin	0.0001674624	815
bin	0.0001683168	876
bin	0.0001691712	804
bin	0.0001700256	825
bin	0.00017088	772
bin	0.0001717344	827
bin	0.0001725888	820
bin	0.0001734432	792
bin	0.0001742976	870
bin	0.000175152	824
bin	0.0001760064	876
bin	0.0001768608	869
bin	0.0001777152	863
bin	0.0001785696	843
bin	0.000179424	883
bin	0.0001802784	829
bin	0.0001811328	833
bin	0.0001819872	813
bin	0.0001828416	853
bin	0.000183696	846
bin	0.0001845504	877
bin	0.0001854048	905
bin	0.0001862592	952
bin	0.0001871136	901
bin	0.000187968	916
bin	0.0001888224	860
bin	0.0001896768	883
bin	0.0001905312	841
bin	0.0001913856	792
bin	0.00019224	803
bin	0.0001930944	795
bin	0.0001939488	767
bin	0.0001948032	763
bin	0.0001956576	759
bin	0.000196512	720
bin	0.0001973664	722
bin	0.0001982208	729
bin	0.0001990752	687
bin	0.0001999296	679
bin	0.000200784	716
bin	0.0002016384	697
bin	0.0002024928	688
bin	0.0002033472	654
bin	0.0002042016	699
bin	0.000205056	732
bin	0.0002059104	737
bin	0.0002067648	753
bin	0.0002076192	763
bin	0.0002084736	785
bin	0.000209328	753
bin	0.0002101824	755
bin	0.0002110368	771
bin	0.0002118912	760
bin	0.0002127456	793
bin	0.0002136	761
bin	0.0002144544	784
bin	0.0002153088	793
bin	0.0002161632	806
bin	0.0002170176	812
bin	0.000217872	818
bin	0.0002187264	786
bin	0.0002195808	810
bin	0.0002204352	752
bin	0.0002212896	768
bin	0.000222144	738
bin	0.0002229984	731
bin	0.0002238528	702
bin	0.0002247072	700
bin	0.0002255616	688
bin	0.000226416	677
bin	0.0002272704	665
bin	0.0002281248	714
bin	0.0002289792	655
bin	0.0002298336	685
bin	0.000230688	660
bin	0.0002315424	668
bin	0.0002323968	682
bin	0.0002332512	689
bin	0.0002341056	696
bin	0.00023496	676
bin	0.0002358144	683
bin	0.0002366688	691
bin	0.0002375232	689
bin	0.0002383776	708
bin	0.000239232	682
bin	0.0002400864	673
bin	0.0002409408	713
bin	0.0002417952	662
bin	0.0002426496	698
bin	0.000243504	711
bin	0.0002443584	696
bin	0.0002452128	723
bin	0.0002460672	734
bin	0.0002469216	701
bin	0.000247776	702
bin	0.0002486304	717
bin	0.0002494848	668
bin	0.0002503392	634
bin	0.0002511936	663
bin	0.000252048	689
bin	0.0002529024	686
bin	0.0002537568	683
bin	0.0002546112	675
bin	0.0002554656	636
bin	0.00025632	661
bin	0.0002571744	662
bin	0.0002580288	655
bin	0.0002588832	634
bin	0.0002597376	614
bin	0.000260592	606
bin	0.0002614464	647
bin	0.0002623008	615
bin	0.0002631552	615
bin	0.0002640096	646
bin	0.000264864	599
bin	0.0002657184	641
bin	0.0002665728	609
bin	0.0002674272	600
bin	0.0002682816	636
bin	0.000269136	651
bin	0.0002699904	640
bin	0.0002708448	633
bin	0.0002716992	693
bin	0.0002725536	714
bin	0.000273408	701
bin	0.0002742624	680
bin	0.0002751168	697
bin	0.0002759712	694
bin	0.0002768256	738
bin	0.00027768	733
bin	0.0002785344	706
bin	0.0002793888	699
bin	0.0002802432	684
bin	0.0002810976	732
bin	0.000281952	726
bin	0.0002828064	658
bin	0.0002836608	672
bin	0.0002845152	640
bin	0.0002853696	639
bin	0.000286224	606
bin	0.0002870784	583
bin	0.0002879328	634
bin	0.0002887872	638
bin	0.0002896416	561
bin	0.000290496	653
bin	0.0002913504	654
bin	0.0002922048	615
bin	0.0002930592	631
bin	0.0002939136	630
bin	0.000294768	665
bin	0.0002956224	627
bin	0.0002964768	602
bin	0.0002973312	583
bin	0.0002981856	604
bin	0.00029904	580
bin	0.0002998944	640
bin	0.0003007488	629
bin	0.0003016032	604
bin	0.0003024576	607
bin	0.000303312	594
bin	0.0003041664	614
bin	0.0003050208	615
bin	0.0003058752	592
bin	0.0003067296	601
bin	0.000307584	616
bin	0.0003084384	646
bin	0.0003092928	648
bin	0.0003101472	654
bin	0.0003110016	649
bin	0.000311856	698
bin	0.0003127104	695
bin	0.0003135648	650
bin	0.0003144192	666
bin	0.0003152736	622
bin	0.000316128	591
bin	0.0003169824	625
bin	0.0003178368	615
bin	0.0003186912	617
bin	0.0003195456	569
bin	0.0003204	574
bin	0.0003212544	546
bin	0.0003221088	560
bin	0.0003229632	528
bin	0.0003238176	566
bin	0.000324672	528
bin	0.0003255264	568
bin	0.0003263808	556
bin	0.0003272352	537
bin	0.0003280896	551
bin	0.000328944	571
bin	0.0003297984	601
bin	0.0003306528	572
bin	0.0003315072	597
bin	0.0003323616	594
bin	0.000333216	569
bin	0.0003340704	604
bin	0.0003349248	614
bin	0.0003357792	571
bin	0.0003366336	531
bin	0.000337488	577
bin	0.0003383424	564
bin	0.0003391968	591
bin	0.0003400512	614
bin	0.0003409056	597
bin	0.00034176	621
bin	0.0003426144	613
bin	0.0003434688	626
bin	0.0003443232	629
bin	0.0003451776	592
bin	0.000346032	551
bin	0.0003468864	578
bin	0.0003477408	559
bin	0.0003485952	548
bin	0.0003494496	571
bin	0.000350304	569
bin	0.0003511584	558
bin	0.0003520128	557
bin	0.0003528672	572
bin	0.0003537216	538
bin	0.000354576	527
bin	0.0003554304	539
bin	0.0003562848	583
bin	0.0003571392	586
bin	0.0003579936	567
bin	0.000358848	650
bin	0.0003597024	634
bin	0.0003605568	608
bin	0.0003614112	595
bin	0.0003622656	606
bin	0.00036312	613
bin	0.0003639744	613
bin	0.0003648288	574
bin	0.0003656832	676
bin	0.0003665376	613
bin	0.000367392	635
bin	0.0003682464	613
bin	0.0003691008	619
bin	0.0003699552	590
bin	0.0003708096	637
bin	0.000371664	616
bin	0.0003725184	634
bin	0.0003733728	639
bin	0.0003742272	640
bin	0.0003750816	658
bin	0.000375936	612
bin	0.0003767904	580
bin	0.0003776448	584
bin	0.0003784992	573
bin	0.0003793536	568
bin	0.000380208	576
bin	0.0003810624	584
bin	0.0003819168	575
bin	0.0003827712	637
bin	0.0003836256	589
bin	0.00038448	622
bin	0.0003853344	631
bin	0.0003861888	599
bin	0.0003870432	604
bin	0.0003878976	626
bin	0.000388752	628
bin	0.0003896064	618
bin	0.0003904608	634
bin	0.0003913152	604
bin	0.0003921696	620
bin	0.000393024	561
bin	0.0003938784	600
bin	0.0003947328	614
bin	0.0003955872	607
bin	0.0003964416	620
bin	0.000397296	627
bin	0.0003981504	652
bin	0.0003990048	642
bin	0.0003998592	644
bin	0.0004007136	649
bin	0.000401568	666
bin	0.0004024224	645
bin	0.0004032768	652
bin	0.0004041312	671
bin	0.0004049856	650
bin	0.00040584	639
bin	0.0004066944	647
bin	0.0004075488	606
bin	0.0004084032	595
bin	0.0004092576	625
bin	0.000410112	605
bin	0.0004109664	597
bin	0.0004118208	552
bin	0.0004126752	596
bin	0.0004135296	503
bin	0.000414384	537
bin	0.0004152384	517
bin	0.0004160928	548
bin	0.0004169472	571
bin	0.0004178016	579
bin	0.000418656	569
bin	0.0004195104	583
bin	0.0004203648	574
bin	0.0004212192	556
bin	0.0004220736	597
bin	0.000422928	595
bin	0.0004237824	625
bin	0.0004246368	605
bin	0.0004254912	591
bin	0.0004263456	589
bin	0.0004272	5169305
