version 2
run Transposition-56-20120710-13:48:51-25480
attr alg 0
attr buf 8
attr configname Transposition
attr datetime 20120710-13:48:51
attr delta 1
attr experiment Transposition
attr ext false
attr inifile altro.ini
attr iterationvars "$buf=8, $ext=false, $ofedge=1, $delta=1, $alg=0"
attr iterationvars2 "$buf=8, $ext=false, $ofedge=1, $delta=1, $alg=0, $repetition=0"
attr measurement "$buf=8, $ext=false, $ofedge=1, $delta=1, $alg=0"
attr network Torus3d_bub
attr ofedge 1
attr processid 25480
attr repetition 0
attr replication #0
attr resultdir altro-results
attr runnumber 56
attr seedset 56

scalar . 	alg 	0
scalar . 	buf 	8
scalar . 	delta 	1
scalar . 	ofedge 	1
scalar Torus3d_bub.timer 	#endTime 	0.004114937333327
scalar Torus3d_bub.timer 	#totalHops 	75497472
scalar Torus3d_bub.timer 	#totalPacks 	6291456
scalar Torus3d_bub.timer 	#totalDerouted 	0
scalar Torus3d_bub.timer 	#totalOutFlanked 	0
scalar Torus3d_bub.timer 	#totalCQRed 	0
scalar Torus3d_bub.timer 	#LB 	0.000786432
scalar Torus3d_bub.timer 	#ratio 	0.19111639772267
statistic Torus3d_bub.timer 	"Hop Times"
field count 6193152
field mean 0.00011162747786582
field stddev 8.396721630407e-05
field sum 691.32593779964
field sqrsum 0.1208357411563
field min 3.74222222e-07
field max 0.0007822598
bin	-INF	0
bin	0	0
bin	7.12e-08	0
bin	1.424e-07	0
bin	2.136e-07	0
bin	2.848e-07	0
bin	3.56e-07	279
bin	4.272e-07	1025
bin	4.984e-07	1633
bin	5.696e-07	2482
bin	6.408e-07	3278
bin	7.12e-07	3996
bin	7.832e-07	4672
bin	8.544e-07	4948
bin	9.256e-07	5803
bin	9.968e-07	6365
bin	1.068e-06	7136
bin	1.1392e-06	7837
bin	1.2104e-06	8744
bin	1.2816e-06	9626
bin	1.3528e-06	10753
bin	1.424e-06	11643
bin	1.4952e-06	12305
bin	1.5664e-06	13329
bin	1.6376e-06	13837
bin	1.7088e-06	14228
bin	1.78e-06	14644
bin	1.8512e-06	14610
bin	1.9224e-06	14797
bin	1.9936e-06	14898
bin	2.0648e-06	14836
bin	2.136e-06	14774
bin	2.2072e-06	14047
bin	2.2784e-06	13925
bin	2.3496e-06	13369
bin	2.4208e-06	13046
bin	2.492e-06	12669
bin	2.5632e-06	12255
bin	2.6344e-06	11944
bin	2.7056e-06	11851
bin	2.7768e-06	11437
bin	2.848e-06	11042
bin	2.9192e-06	10798
bin	2.9904e-06	10547
bin	3.0616e-06	10242
bin	3.1328e-06	9782
bin	3.204e-06	9594
bin	3.2752e-06	9217
bin	3.3464e-06	8939
bin	3.4176e-06	8743
bin	3.4888e-06	8459
bin	3.56e-06	8096
bin	3.6312e-06	7937
bin	3.7024e-06	7558
bin	3.7736e-06	7416
bin	3.8448e-06	7271
bin	3.916e-06	6966
bin	3.9872e-06	7011
bin	4.0584e-06	6760
bin	4.1296e-06	6461
bin	4.2008e-06	6402
bin	4.272e-06	6436
bin	4.3432e-06	6074
bin	4.4144e-06	5939
bin	4.4856e-06	5824
bin	4.5568e-06	5638
bin	4.628e-06	5629
bin	4.6992e-06	5577
bin	4.7704e-06	5451
bin	4.8416e-06	5382
bin	4.9128e-06	5320
bin	4.984e-06	5234
bin	5.0552e-06	5063
bin	5.1264e-06	4969
bin	5.1976e-06	4836
bin	5.2688e-06	4788
bin	5.34e-06	4660
bin	5.4112e-06	4643
bin	5.4824e-06	4477
bin	5.5536e-06	4556
bin	5.6248e-06	4365
bin	5.696e-06	4280
bin	5.7672e-06	4325
bin	5.8384e-06	4302
bin	5.9096e-06	4173
bin	5.9808e-06	4126
bin	6.052e-06	4092
bin	6.1232e-06	4009
bin	6.1944e-06	4001
bin	6.2656e-06	3873
bin	6.3368e-06	3819
bin	6.408e-06	3726
bin	6.4792e-06	3707
bin	6.5504e-06	3624
bin	6.6216e-06	3638
bin	6.6928e-06	3562
bin	6.764e-06	3484
bin	6.8352e-06	3493
bin	6.9064e-06	3388
bin	6.9776e-06	3453
bin	7.0488e-06	3423
bin	7.12e-06	3325
bin	7.1912e-06	3339
bin	7.2624e-06	3365
bin	7.3336e-06	3313
bin	7.4048e-06	3332
bin	7.476e-06	3394
bin	7.5472e-06	3261
bin	7.6184e-06	3255
bin	7.6896e-06	3334
bin	7.7608e-06	3192
bin	7.832e-06	3196
bin	7.9032e-06	3163
bin	7.9744e-06	3248
bin	8.0456e-06	3165
bin	8.1168e-06	3141
bin	8.188e-06	3079
bin	8.2592e-06	3061
bin	8.3304e-06	3063
bin	8.4016e-06	3133
bin	8.4728e-06	3104
bin	8.544e-06	3093
bin	8.6152e-06	2969
bin	8.6864e-06	2989
bin	8.7576e-06	2936
bin	8.8288e-06	2889
bin	8.9e-06	2882
bin	8.9712e-06	2839
bin	9.0424e-06	2876
bin	9.1136e-06	2809
bin	9.1848e-06	2865
bin	9.256e-06	2827
bin	9.3272e-06	2802
bin	9.3984e-06	2780
bin	9.4696e-06	2773
bin	9.5408e-06	2774
bin	9.612e-06	2798
bin	9.6832e-06	2809
bin	9.7544e-06	2811
bin	9.8256e-06	2765
bin	9.8968e-06	2813
bin	9.968e-06	2830
bin	1.00392e-05	2842
bin	1.01104e-05	2750
bin	1.01816e-05	2681
bin	1.02528e-05	2698
bin	1.0324e-05	2609
bin	1.03952e-05	2521
bin	1.04664e-05	2617
bin	1.05376e-05	2549
bin	1.06088e-05	2499
bin	1.068e-05	2478
bin	1.07512e-05	2517
bin	1.08224e-05	2503
bin	1.08936e-05	2509
bin	1.09648e-05	2482
bin	1.1036e-05	2495
bin	1.11072e-05	2446
bin	1.11784e-05	2436
bin	1.12496e-05	2462
bin	1.13208e-05	2438
bin	1.1392e-05	2397
bin	1.14632e-05	2414
bin	1.15344e-05	2313
bin	1.16056e-05	2361
bin	1.16768e-05	2385
bin	1.1748e-05	2365
bin	1.18192e-05	2441
bin	1.18904e-05	2408
bin	1.19616e-05	2400
bin	1.20328e-05	2457
bin	1.2104e-05	2407
bin	1.21752e-05	2318
bin	1.22464e-05	2433
bin	1.23176e-05	2345
bin	1.23888e-05	2277
bin	1.246e-05	2453
bin	1.25312e-05	2356
bin	1.26024e-05	2361
bin	1.26736e-05	2438
bin	1.27448e-05	2347
bin	1.2816e-05	2317
bin	1.28872e-05	2341
bin	1.29584e-05	2281
bin	1.30296e-05	2305
bin	1.31008e-05	2242
bin	1.3172e-05	2260
bin	1.32432e-05	2245
bin	1.33144e-05	2235
bin	1.33856e-05	2235
bin	1.34568e-05	2234
bin	1.3528e-05	2241
bin	1.35992e-05	2264
bin	1.36704e-05	2262
bin	1.37416e-05	2175
bin	1.38128e-05	2178
bin	1.3884e-05	2129
bin	1.39552e-05	2120
bin	1.40264e-05	2158
bin	1.40976e-05	2168
bin	1.41688e-05	2142
bin	1.424e-05	2223
bin	1.43112e-05	2175
bin	1.43824e-05	2134
bin	1.44536e-05	2183
bin	1.45248e-05	2082
bin	1.4596e-05	2132
bin	1.46672e-05	2035
bin	1.47384e-05	2045
bin	1.48096e-05	2060
bin	1.48808e-05	2103
bin	1.4952e-05	2094
bin	1.50232e-05	2059
bin	1.50944e-05	2025
bin	1.51656e-05	2037
bin	1.52368e-05	2018
bin	1.5308e-05	1944
bin	1.53792e-05	2005
bin	1.54504e-05	2045
bin	1.55216e-05	2037
bin	1.55928e-05	1993
bin	1.5664e-05	1928
bin	1.57352e-05	1959
bin	1.58064e-05	1915
bin	1.58776e-05	1945
bin	1.59488e-05	1916
bin	1.602e-05	1966
bin	1.60912e-05	1945
bin	1.61624e-05	1904
bin	1.62336e-05	1913
bin	1.63048e-05	1881
bin	1.6376e-05	1927
bin	1.64472e-05	1925
bin	1.65184e-05	1876
bin	1.65896e-05	1910
bin	1.66608e-05	1899
bin	1.6732e-05	1837
bin	1.68032e-05	1890
bin	1.68744e-05	1817
bin	1.69456e-05	1841
bin	1.70168e-05	1868
bin	1.7088e-05	1884
bin	1.71592e-05	1875
bin	1.72304e-05	1863
bin	1.73016e-05	1880
bin	1.73728e-05	1863
bin	1.7444e-05	1851
bin	1.75152e-05	1956
bin	1.75864e-05	1884
bin	1.76576e-05	1850
bin	1.77288e-05	1912
bin	1.78e-05	1967
bin	1.78712e-05	1954
bin	1.79424e-05	1923
bin	1.80136e-05	1875
bin	1.80848e-05	1951
bin	1.8156e-05	1944
bin	1.82272e-05	1948
bin	1.82984e-05	1954
bin	1.83696e-05	1848
bin	1.84408e-05	1944
bin	1.8512e-05	1884
bin	1.85832e-05	1886
bin	1.86544e-05	1935
bin	1.87256e-05	1808
bin	1.87968e-05	1947
bin	1.8868e-05	1868
bin	1.89392e-05	1886
bin	1.90104e-05	1917
bin	1.90816e-05	1924
bin	1.91528e-05	1886
bin	1.9224e-05	1819
bin	1.92952e-05	1880
bin	1.93664e-05	1838
bin	1.94376e-05	1792
bin	1.95088e-05	1808
bin	1.958e-05	1859
bin	1.96512e-05	1854
bin	1.97224e-05	1903
bin	1.97936e-05	1869
bin	1.98648e-05	1868
bin	1.9936e-05	1807
bin	2.00072e-05	1808
bin	2.00784e-05	1810
bin	2.01496e-05	1865
bin	2.02208e-05	1817
bin	2.0292e-05	1865
bin	2.03632e-05	1915
bin	2.04344e-05	1890
bin	2.05056e-05	1872
bin	2.05768e-05	1810
bin	2.0648e-05	1861
bin	2.07192e-05	1826
bin	2.07904e-05	1829
bin	2.08616e-05	1854
bin	2.09328e-05	1914
bin	2.1004e-05	1868
bin	2.10752e-05	1819
bin	2.11464e-05	1845
bin	2.12176e-05	1793
bin	2.12888e-05	1824
bin	2.136e-05	1741
bin	2.14312e-05	1751
bin	2.15024e-05	1718
bin	2.15736e-05	1809
bin	2.16448e-05	1774
bin	2.1716e-05	1757
bin	2.17872e-05	1776
bin	2.18584e-05	1796
bin	2.19296e-05	1811
bin	2.20008e-05	1860
bin	2.2072e-05	1803
bin	2.21432e-05	1858
bin	2.22144e-05	1894
bin	2.22856e-05	1855
bin	2.23568e-05	1817
bin	2.2428e-05	1845
bin	2.24992e-05	1861
bin	2.25704e-05	1783
bin	2.26416e-05	1830
bin	2.27128e-05	1886
bin	2.2784e-05	1837
bin	2.28552e-05	1851
bin	2.29264e-05	1813
bin	2.29976e-05	1846
bin	2.30688e-05	1716
bin	2.314e-05	1780
bin	2.32112e-05	1800
bin	2.32824e-05	1799
bin	2.33536e-05	1794
bin	2.34248e-05	1720
bin	2.3496e-05	1691
bin	2.35672e-05	1759
bin	2.36384e-05	1774
bin	2.37096e-05	1739
bin	2.37808e-05	1748
bin	2.3852e-05	1799
bin	2.39232e-05	1772
bin	2.39944e-05	1827
bin	2.40656e-05	1718
bin	2.41368e-05	1706
bin	2.4208e-05	1766
bin	2.42792e-05	1732
bin	2.43504e-05	1792
bin	2.44216e-05	1879
bin	2.44928e-05	1795
bin	2.4564e-05	1857
bin	2.46352e-05	1764
bin	2.47064e-05	1831
bin	2.47776e-05	1867
bin	2.48488e-05	1804
bin	2.492e-05	1917
bin	2.49912e-05	1888
bin	2.50624e-05	1874
bin	2.51336e-05	1812
bin	2.52048e-05	1846
bin	2.5276e-05	1803
bin	2.53472e-05	1761
bin	2.54184e-05	1759
bin	2.54896e-05	1744
bin	2.55608e-05	1736
bin	2.5632e-05	1766
bin	2.57032e-05	1705
bin	2.57744e-05	1676
bin	2.58456e-05	1697
bin	2.59168e-05	1706
bin	2.5988e-05	1673
bin	2.60592e-05	1654
bin	2.61304e-05	1687
bin	2.62016e-05	1686
bin	2.62728e-05	1657
bin	2.6344e-05	1700
bin	2.64152e-05	1696
bin	2.64864e-05	1666
bin	2.65576e-05	1729
bin	2.66288e-05	1719
bin	2.67e-05	1740
bin	2.67712e-05	1723
bin	2.68424e-05	1740
bin	2.69136e-05	1781
bin	2.69848e-05	1726
bin	2.7056e-05	1695
bin	2.71272e-05	1695
bin	2.71984e-05	1708
bin	2.72696e-05	1654
bin	2.73408e-05	1713
bin	2.7412e-05	1683
bin	2.74832e-05	1682
bin	2.75544e-05	1618
bin	2.76256e-05	1678
bin	2.76968e-05	1702
bin	2.7768e-05	1719
bin	2.78392e-05	1664
bin	2.79104e-05	1677
bin	2.79816e-05	1722
bin	2.80528e-05	1655
bin	2.8124e-05	1667
bin	2.81952e-05	1684
bin	2.82664e-05	1728
bin	2.83376e-05	1690
bin	2.84088e-05	1651
bin	2.848e-05	1672
bin	2.85512e-05	1627
bin	2.86224e-05	1589
bin	2.86936e-05	1575
bin	2.87648e-05	1612
bin	2.8836e-05	1562
bin	2.89072e-05	1580
bin	2.89784e-05	1591
bin	2.90496e-05	1574
bin	2.91208e-05	1589
bin	2.9192e-05	1551
bin	2.92632e-05	1505
bin	2.93344e-05	1505
bin	2.94056e-05	1510
bin	2.94768e-05	1573
bin	2.9548e-05	1516
bin	2.96192e-05	1544
bin	2.96904e-05	1499
bin	2.97616e-05	1504
bin	2.98328e-05	1531
bin	2.9904e-05	1530
bin	2.99752e-05	1481
bin	3.00464e-05	1520
bin	3.01176e-05	1526
bin	3.01888e-05	1514
bin	3.026e-05	1443
bin	3.03312e-05	1535
bin	3.04024e-05	1460
bin	3.04736e-05	1446
bin	3.05448e-05	1485
bin	3.0616e-05	1517
bin	3.06872e-05	1399
bin	3.07584e-05	1381
bin	3.08296e-05	1405
bin	3.09008e-05	1383
bin	3.0972e-05	1389
bin	3.10432e-05	1441
bin	3.11144e-05	1474
bin	3.11856e-05	1401
bin	3.12568e-05	1432
bin	3.1328e-05	1476
bin	3.13992e-05	1458
bin	3.14704e-05	1421
bin	3.15416e-05	1423
bin	3.16128e-05	1384
bin	3.1684e-05	1380
bin	3.17552e-05	1384
bin	3.18264e-05	1362
bin	3.18976e-05	1295
bin	3.19688e-05	1316
bin	3.204e-05	1298
bin	3.21112e-05	1358
bin	3.21824e-05	1411
bin	3.22536e-05	1379
bin	3.23248e-05	1361
bin	3.2396e-05	1380
bin	3.24672e-05	1412
bin	3.25384e-05	1442
bin	3.26096e-05	1444
bin	3.26808e-05	1373
bin	3.2752e-05	1450
bin	3.28232e-05	1360
bin	3.28944e-05	1379
bin	3.29656e-05	1386
bin	3.30368e-05	1396
bin	3.3108e-05	1388
bin	3.31792e-05	1447
bin	3.32504e-05	1471
bin	3.33216e-05	1480
bin	3.33928e-05	1485
bin	3.3464e-05	1467
bin	3.35352e-05	1444
bin	3.36064e-05	1458
bin	3.36776e-05	1535
bin	3.37488e-05	1465
bin	3.382e-05	1449
bin	3.38912e-05	1385
bin	3.39624e-05	1400
bin	3.40336e-05	1437
bin	3.41048e-05	1441
bin	3.4176e-05	1385
bin	3.42472e-05	1446
bin	3.43184e-05	1498
bin	3.43896e-05	1485
bin	3.44608e-05	1422
bin	3.4532e-05	1385
bin	3.46032e-05	1382
bin	3.46744e-05	1443
bin	3.47456e-05	1372
bin	3.48168e-05	1410
bin	3.4888e-05	1356
bin	3.49592e-05	1366
bin	3.50304e-05	1337
bin	3.51016e-05	1372
bin	3.51728e-05	1380
bin	3.5244e-05	1318
bin	3.53152e-05	1327
bin	3.53864e-05	1352
bin	3.54576e-05	1329
bin	3.55288e-05	1366
bin	3.56e-05	4718124
statistic Torus3d_bub.timer 	"Life Times"
field count 6291456
field mean 0.0013157064560719
field stddev 0.00098403944286724
field sum 8277.7092772921
field sqrsum 16.983262965039
field min 1.64e-07
field max 0.004081634333327
bin	-INF	0
bin	0	6592
bin	8.544e-07	8192
bin	1.7088e-06	8760
bin	2.5632e-06	9088
bin	3.4176e-06	9739
bin	4.272e-06	10475
bin	5.1264e-06	11376
bin	5.9808e-06	12309
bin	6.8352e-06	13312
bin	7.6896e-06	14217
bin	8.544e-06	15170
bin	9.3984e-06	16456
bin	1.02528e-05	10892
bin	1.11072e-05	10320
bin	1.19616e-05	11000
bin	1.2816e-05	11245
bin	1.36704e-05	12161
bin	1.45248e-05	12659
bin	1.53792e-05	13196
bin	1.62336e-05	13685
bin	1.7088e-05	14034
bin	1.79424e-05	14560
bin	1.87968e-05	14770
bin	1.96512e-05	15075
bin	2.05056e-05	15644
bin	2.136e-05	15923
bin	2.22144e-05	16062
bin	2.30688e-05	16390
bin	2.39232e-05	16714
bin	2.47776e-05	17130
bin	2.5632e-05	16926
bin	2.64864e-05	16536
bin	2.73408e-05	16172
bin	2.81952e-05	15031
bin	2.90496e-05	14605
bin	2.9904e-05	14045
bin	3.07584e-05	12967
bin	3.16128e-05	12245
bin	3.24672e-05	11529
bin	3.33216e-05	10516
bin	3.4176e-05	9837
bin	3.50304e-05	9206
bin	3.58848e-05	8699
bin	3.67392e-05	8180
bin	3.75936e-05	7843
bin	3.8448e-05	7510
bin	3.93024e-05	7261
bin	4.01568e-05	7103
bin	4.10112e-05	6910
bin	4.18656e-05	6788
bin	4.272e-05	6662
bin	4.35744e-05	6459
bin	4.44288e-05	6505
bin	4.52832e-05	6200
bin	4.61376e-05	6384
bin	4.6992e-05	6405
bin	4.78464e-05	6420
bin	4.87008e-05	6232
bin	4.95552e-05	6086
bin	5.04096e-05	6000
bin	5.1264e-05	5911
bin	5.21184e-05	6027
bin	5.29728e-05	5801
bin	5.38272e-05	5703
bin	5.46816e-05	5401
bin	5.5536e-05	5449
bin	5.63904e-05	5226
bin	5.72448e-05	5024
bin	5.80992e-05	4908
bin	5.89536e-05	4888
bin	5.9808e-05	4772
bin	6.06624e-05	4720
bin	6.15168e-05	4632
bin	6.23712e-05	4541
bin	6.32256e-05	4521
bin	6.408e-05	4355
bin	6.49344e-05	4494
bin	6.57888e-05	4252
bin	6.66432e-05	4236
bin	6.74976e-05	4252
bin	6.8352e-05	4172
bin	6.92064e-05	4201
bin	7.00608e-05	4160
bin	7.09152e-05	4084
bin	7.17696e-05	4164
bin	7.2624e-05	4091
bin	7.34784e-05	4107
bin	7.43328e-05	4076
bin	7.51872e-05	4141
bin	7.60416e-05	3967
bin	7.6896e-05	4054
bin	7.77504e-05	3884
bin	7.86048e-05	3815
bin	7.94592e-05	3848
bin	8.03136e-05	3818
bin	8.1168e-05	3867
bin	8.20224e-05	3776
bin	8.28768e-05	3640
bin	8.37312e-05	3692
bin	8.45856e-05	3632
bin	8.544e-05	3498
bin	8.62944e-05	3457
bin	8.71488e-05	3473
bin	8.80032e-05	3346
bin	8.88576e-05	3266
bin	8.9712e-05	3272
bin	9.05664e-05	3181
bin	9.14208e-05	3181
bin	9.22752e-05	3281
bin	9.31296e-05	3194
bin	9.3984e-05	3256
bin	9.48384e-05	3262
bin	9.56928e-05	3304
bin	9.65472e-05	3237
bin	9.74016e-05	3220
bin	9.8256e-05	3289
bin	9.91104e-05	3358
bin	9.99648e-05	3331
bin	0.0001008192	3283
bin	0.0001016736	3327
bin	0.000102528	3198
bin	0.0001033824	3248
bin	0.0001042368	3192
bin	0.0001050912	3083
bin	0.0001059456	3095
bin	0.0001068	3023
bin	0.0001076544	2963
bin	0.0001085088	2947
bin	0.0001093632	2951
bin	0.0001102176	2886
bin	0.000111072	2827
bin	0.0001119264	2905
bin	0.0001127808	2789
bin	0.0001136352	2692
bin	0.0001144896	2718
bin	0.000115344	2701
bin	0.0001161984	2720
bin	0.0001170528	2622
bin	0.0001179072	2719
bin	0.0001187616	2751
bin	0.000119616	2754
bin	0.0001204704	2765
bin	0.0001213248	2875
bin	0.0001221792	2797
bin	0.0001230336	2839
bin	0.000123888	2736
bin	0.0001247424	2759
bin	0.0001255968	2760
bin	0.0001264512	2802
bin	0.0001273056	2845
bin	0.00012816	2851
bin	0.0001290144	2667
bin	0.0001298688	2690
bin	0.0001307232	2642
bin	0.0001315776	2607
bin	0.000132432	2533
bin	0.0001332864	2492
bin	0.0001341408	2475
bin	0.0001349952	2451
bin	0.0001358496	2445
bin	0.000136704	2424
bin	0.0001375584	2449
bin	0.0001384128	2414
bin	0.0001392672	2382
bin	0.0001401216	2407
bin	0.000140976	2372
bin	0.0001418304	2411
bin	0.0001426848	2345
bin	0.0001435392	2379
bin	0.0001443936	2339
bin	0.000145248	2394
bin	0.0001461024	2369
bin	0.0001469568	2443
bin	0.0001478112	2512
bin	0.0001486656	2446
bin	0.00014952	2577
bin	0.0001503744	2469
bin	0.0001512288	2443
bin	0.0001520832	2428
bin	0.0001529376	2499
bin	0.000153792	2365
bin	0.0001546464	2441
bin	0.0001555008	2292
bin	0.0001563552	2346
bin	0.0001572096	2311
bin	0.000158064	2282
bin	0.0001589184	2240
bin	0.0001597728	2268
bin	0.0001606272	2225
bin	0.0001614816	2161
bin	0.000162336	2221
bin	0.0001631904	2230
bin	0.0001640448	2252
bin	0.0001648992	2174
bin	0.0001657536	2156
bin	0.000166608	2217
bin	0.0001674624	2133
bin	0.0001683168	2118
bin	0.0001691712	2234
bin	0.0001700256	2165
bin	0.00017088	2214
bin	0.0001717344	2158
bin	0.0001725888	2264
bin	0.0001734432	2212
bin	0.0001742976	2213
bin	0.000175152	2352
bin	0.0001760064	2407
bin	0.0001768608	2322
bin	0.0001777152	2314
bin	0.0001785696	2292
bin	0.000179424	2298
bin	0.0001802784	2227
bin	0.0001811328	2206
bin	0.0001819872	2195
bin	0.0001828416	2199
bin	0.000183696	2239
bin	0.0001845504	2158
bin	0.0001854048	2141
bin	0.0001862592	2187
bin	0.0001871136	2110
bin	0.000187968	2149
bin	0.0001888224	2100
bin	0.0001896768	2094
bin	0.0001905312	2085
bin	0.0001913856	2070
bin	0.00019224	2089
bin	0.0001930944	2029
bin	0.0001939488	2129
bin	0.0001948032	2124
bin	0.0001956576	2189
bin	0.000196512	2112
bin	0.0001973664	2132
bin	0.0001982208	2132
bin	0.0001990752	2100
bin	0.0001999296	2133
bin	0.000200784	2135
bin	0.0002016384	2191
bin	0.0002024928	2124
bin	0.0002033472	2163
bin	0.0002042016	2173
bin	0.000205056	2190
bin	0.0002059104	2068
bin	0.0002067648	2100
bin	0.0002076192	2004
bin	0.0002084736	2138
bin	0.000209328	2132
bin	0.0002101824	2121
bin	0.0002110368	2086
bin	0.0002118912	2070
bin	0.0002127456	2041
bin	0.0002136	1983
bin	0.0002144544	1975
bin	0.0002153088	1923
bin	0.0002161632	1851
bin	0.0002170176	1971
bin	0.000217872	2016
bin	0.0002187264	1973
bin	0.0002195808	1982
bin	0.0002204352	2020
bin	0.0002212896	2125
bin	0.000222144	2149
bin	0.0002229984	2116
bin	0.0002238528	2156
bin	0.0002247072	2104
bin	0.0002255616	2190
bin	0.000226416	2114
bin	0.0002272704	2165
bin	0.0002281248	2182
bin	0.0002289792	2025
bin	0.0002298336	2085
bin	0.000230688	2014
bin	0.0002315424	2053
bin	0.0002323968	2060
bin	0.0002332512	1954
bin	0.0002341056	1932
bin	0.00023496	1840
bin	0.0002358144	1884
bin	0.0002366688	1859
bin	0.0002375232	1899
bin	0.0002383776	1787
bin	0.000239232	1772
bin	0.0002400864	1826
bin	0.0002409408	1811
bin	0.0002417952	1826
bin	0.0002426496	1873
bin	0.000243504	1932
bin	0.0002443584	1978
bin	0.0002452128	1939
bin	0.0002460672	1973
bin	0.0002469216	1933
bin	0.000247776	1952
bin	0.0002486304	1956
bin	0.0002494848	1912
bin	0.0002503392	1999
bin	0.0002511936	2000
bin	0.000252048	1964
bin	0.0002529024	1933
bin	0.0002537568	1980
bin	0.0002546112	1968
bin	0.0002554656	1998
bin	0.00025632	1979
bin	0.0002571744	1937
bin	0.0002580288	1848
bin	0.0002588832	1867
bin	0.0002597376	1828
bin	0.000260592	1813
bin	0.0002614464	1833
bin	0.0002623008	1782
bin	0.0002631552	1886
bin	0.0002640096	1850
bin	0.000264864	1801
bin	0.0002657184	1910
bin	0.0002665728	1925
bin	0.0002674272	1974
bin	0.0002682816	1993
bin	0.000269136	1920
bin	0.0002699904	1929
bin	0.0002708448	1915
bin	0.0002716992	2008
bin	0.0002725536	2002
bin	0.000273408	1982
bin	0.0002742624	2076
bin	0.0002751168	1995
bin	0.0002759712	2059
bin	0.0002768256	1979
bin	0.00027768	1900
bin	0.0002785344	1810
bin	0.0002793888	1805
bin	0.0002802432	1778
bin	0.0002810976	1759
bin	0.000281952	1786
bin	0.0002828064	1730
bin	0.0002836608	1691
bin	0.0002845152	1735
bin	0.0002853696	1751
bin	0.000286224	1721
bin	0.0002870784	1652
bin	0.0002879328	1718
bin	0.0002887872	1615
bin	0.0002896416	1666
bin	0.000290496	1676
bin	0.0002913504	1670
bin	0.0002922048	1636
bin	0.0002930592	1651
bin	0.0002939136	1661
bin	0.000294768	1697
bin	0.0002956224	1698
bin	0.0002964768	1742
bin	0.0002973312	1728
bin	0.0002981856	1750
bin	0.00029904	1663
bin	0.0002998944	1688
bin	0.0003007488	1678
bin	0.0003016032	1650
bin	0.0003024576	1647
bin	0.000303312	1665
bin	0.0003041664	1660
bin	0.0003050208	1622
bin	0.0003058752	1648
bin	0.0003067296	1592
bin	0.000307584	1579
bin	0.0003084384	1593
bin	0.0003092928	1626
bin	0.0003101472	1643
bin	0.0003110016	1634
bin	0.000311856	1599
bin	0.0003127104	1584
bin	0.0003135648	1636
bin	0.0003144192	1618
bin	0.0003152736	1590
bin	0.000316128	1633
bin	0.0003169824	1590
bin	0.0003178368	1649
bin	0.0003186912	1623
bin	0.0003195456	1630
bin	0.0003204	1598
bin	0.0003212544	1728
bin	0.0003221088	1738
bin	0.0003229632	1681
bin	0.0003238176	1678
bin	0.000324672	1718
bin	0.0003255264	1824
bin	0.0003263808	1687
bin	0.0003272352	1726
bin	0.0003280896	1665
bin	0.000328944	1710
bin	0.0003297984	1751
bin	0.0003306528	1656
bin	0.0003315072	1675
bin	0.0003323616	1709
bin	0.000333216	1767
bin	0.0003340704	1717
bin	0.0003349248	1690
bin	0.0003357792	1718
bin	0.0003366336	1718
bin	0.000337488	1655
bin	0.0003383424	1630
bin	0.0003391968	1566
bin	0.0003400512	1670
bin	0.0003409056	1652
bin	0.00034176	1621
bin	0.0003426144	1684
bin	0.0003434688	1635
bin	0.0003443232	1603
bin	0.0003451776	1634
bin	0.000346032	1629
bin	0.0003468864	1640
bin	0.0003477408	1673
bin	0.0003485952	1669
bin	0.0003494496	1684
bin	0.000350304	1637
bin	0.0003511584	1622
bin	0.0003520128	1570
bin	0.0003528672	1606
bin	0.0003537216	1594
bin	0.000354576	1612
bin	0.0003554304	1598
bin	0.0003562848	1599
bin	0.0003571392	1535
bin	0.0003579936	1501
bin	0.000358848	1512
bin	0.0003597024	1501
bin	0.0003605568	1558
bin	0.0003614112	1509
bin	0.0003622656	1554
bin	0.00036312	1522
bin	0.0003639744	1516
bin	0.0003648288	1503
bin	0.0003656832	1596
bin	0.0003665376	1589
bin	0.000367392	1572
bin	0.0003682464	1583
bin	0.0003691008	1587
bin	0.0003699552	1601
bin	0.0003708096	1567
bin	0.000371664	1611
bin	0.0003725184	1635
bin	0.0003733728	1615
bin	0.0003742272	1579
bin	0.0003750816	1529
bin	0.000375936	1563
bin	0.0003767904	1604
bin	0.0003776448	1554
bin	0.0003784992	1505
bin	0.0003793536	1489
bin	0.000380208	1454
bin	0.0003810624	1501
bin	0.0003819168	1473
bin	0.0003827712	1458
bin	0.0003836256	1463
bin	0.00038448	1513
bin	0.0003853344	1432
bin	0.0003861888	1424
bin	0.0003870432	1444
bin	0.0003878976	1513
bin	0.000388752	1537
bin	0.0003896064	1486
bin	0.0003904608	1463
bin	0.0003913152	1510
bin	0.0003921696	1498
bin	0.000393024	1561
bin	0.0003938784	1563
bin	0.0003947328	1529
bin	0.0003955872	1569
bin	0.0003964416	1559
bin	0.000397296	1525
bin	0.0003981504	1609
bin	0.0003990048	1539
bin	0.0003998592	1538
bin	0.0004007136	1588
bin	0.000401568	1541
bin	0.0004024224	1568
bin	0.0004032768	1551
bin	0.0004041312	1571
bin	0.0004049856	1500
bin	0.00040584	1539
bin	0.0004066944	1460
bin	0.0004075488	1488
bin	0.0004084032	1463
bin	0.0004092576	1466
bin	0.000410112	1465
bin	0.0004109664	1470
bin	0.0004118208	1410
bin	0.0004126752	1488
bin	0.0004135296	1439
bin	0.000414384	1466
bin	0.0004152384	1410
bin	0.0004160928	1421
bin	0.0004169472	1456
bin	0.0004178016	1454
bin	0.000418656	1519
bin	0.0004195104	1495
bin	0.0004203648	1522
bin	0.0004212192	1530
bin	0.0004220736	1465
bin	0.000422928	1476
bin	0.0004237824	1561
bin	0.0004246368	1502
bin	0.0004254912	1443
bin	0.0004263456	1442
bin	0.0004272	4636745
