version 2
run Transposition-28-20120710-09:55:46-25335
attr alg 0
attr buf 8
attr configname Transposition
attr datetime 20120710-09:55:46
attr delta 0.6
attr experiment Transposition
attr ext true
attr inifile altro.ini
attr iterationvars "$buf=8, $ext=true, $ofedge=2, $delta=0.6, $alg=0"
attr iterationvars2 "$buf=8, $ext=true, $ofedge=2, $delta=0.6, $alg=0, $repetition=0"
attr measurement "$buf=8, $ext=true, $ofedge=2, $delta=0.6, $alg=0"
attr network Torus3d_bub
attr ofedge 2
attr processid 25335
attr repetition 0
attr replication #0
attr resultdir altro-results
attr runnumber 28
attr seedset 28

scalar . 	alg 	0
scalar . 	buf 	8
scalar . 	delta 	0.6
scalar . 	ofedge 	2
scalar Torus3d_bub.timer 	#endTime 	0.002930611999999
scalar Torus3d_bub.timer 	#totalHops 	75497472
scalar Torus3d_bub.timer 	#totalPacks 	6291456
scalar Torus3d_bub.timer 	#totalDerouted 	0
scalar Torus3d_bub.timer 	#totalOutFlanked 	0
scalar Torus3d_bub.timer 	#totalCQRed 	0
scalar Torus3d_bub.timer 	#LB 	0.000786432
scalar Torus3d_bub.timer 	#ratio 	0.26835077451408
statistic Torus3d_bub.timer 	"Hop Times"
field count 6193152
field mean 3.5095479044732e-05
field stddev 4.3300844990887e-05
field sum 217.35163623684
field sqrsum 0.019239989869023
field min 3.97925925e-07
field max 0.000547846999999
bin	-INF	0
bin	0	0
bin	7.12e-08	0
bin	1.424e-07	0
bin	2.136e-07	0
bin	2.848e-07	0
bin	3.56e-07	117
bin	4.272e-07	3147
bin	4.984e-07	6725
bin	5.696e-07	11564
bin	6.408e-07	16801
bin	7.12e-07	20956
bin	7.832e-07	24341
bin	8.544e-07	26524
bin	9.256e-07	28007
bin	9.968e-07	29798
bin	1.068e-06	31993
bin	1.1392e-06	33691
bin	1.2104e-06	35930
bin	1.2816e-06	38592
bin	1.3528e-06	42671
bin	1.424e-06	46540
bin	1.4952e-06	50602
bin	1.5664e-06	54520
bin	1.6376e-06	57863
bin	1.7088e-06	60547
bin	1.78e-06	62994
bin	1.8512e-06	65411
bin	1.9224e-06	66452
bin	1.9936e-06	67799
bin	2.0648e-06	68023
bin	2.136e-06	67882
bin	2.2072e-06	67616
bin	2.2784e-06	66278
bin	2.3496e-06	64454
bin	2.4208e-06	63183
bin	2.492e-06	61398
bin	2.5632e-06	59869
bin	2.6344e-06	57694
bin	2.7056e-06	55235
bin	2.7768e-06	53649
bin	2.848e-06	51666
bin	2.9192e-06	49267
bin	2.9904e-06	47364
bin	3.0616e-06	45770
bin	3.1328e-06	44090
bin	3.204e-06	42156
bin	3.2752e-06	39910
bin	3.3464e-06	38921
bin	3.4176e-06	36981
bin	3.4888e-06	35209
bin	3.56e-06	33847
bin	3.6312e-06	32361
bin	3.7024e-06	30992
bin	3.7736e-06	29339
bin	3.8448e-06	28246
bin	3.916e-06	27391
bin	3.9872e-06	26031
bin	4.0584e-06	25142
bin	4.1296e-06	24532
bin	4.2008e-06	23465
bin	4.272e-06	22665
bin	4.3432e-06	21835
bin	4.4144e-06	21006
bin	4.4856e-06	19961
bin	4.5568e-06	19218
bin	4.628e-06	18523
bin	4.6992e-06	17704
bin	4.7704e-06	17180
bin	4.8416e-06	16524
bin	4.9128e-06	16130
bin	4.984e-06	15409
bin	5.0552e-06	14877
bin	5.1264e-06	14517
bin	5.1976e-06	14252
bin	5.2688e-06	13833
bin	5.34e-06	13331
bin	5.4112e-06	12855
bin	5.4824e-06	12676
bin	5.5536e-06	12361
bin	5.6248e-06	11927
bin	5.696e-06	11803
bin	5.7672e-06	11279
bin	5.8384e-06	11262
bin	5.9096e-06	10866
bin	5.9808e-06	10701
bin	6.052e-06	10479
bin	6.1232e-06	10103
bin	6.1944e-06	10106
bin	6.2656e-06	9844
bin	6.3368e-06	9766
bin	6.408e-06	9398
bin	6.4792e-06	9369
bin	6.5504e-06	9203
bin	6.6216e-06	8972
bin	6.6928e-06	8995
bin	6.764e-06	8646
bin	6.8352e-06	8731
bin	6.9064e-06	8616
bin	6.9776e-06	8335
bin	7.0488e-06	8162
bin	7.12e-06	8017
bin	7.1912e-06	7925
bin	7.2624e-06	7729
bin	7.3336e-06	7551
bin	7.4048e-06	7519
bin	7.476e-06	7607
bin	7.5472e-06	7306
bin	7.6184e-06	7190
bin	7.6896e-06	7170
bin	7.7608e-06	6983
bin	7.832e-06	6869
bin	7.9032e-06	6868
bin	7.9744e-06	6838
bin	8.0456e-06	6841
bin	8.1168e-06	6817
bin	8.188e-06	6550
bin	8.2592e-06	6439
bin	8.3304e-06	6521
bin	8.4016e-06	6416
bin	8.4728e-06	6207
bin	8.544e-06	6219
bin	8.6152e-06	6222
bin	8.6864e-06	6023
bin	8.7576e-06	5920
bin	8.8288e-06	5909
bin	8.9e-06	5660
bin	8.9712e-06	5665
bin	9.0424e-06	5497
bin	9.1136e-06	5395
bin	9.1848e-06	5396
bin	9.256e-06	5331
bin	9.3272e-06	5285
bin	9.3984e-06	5247
bin	9.4696e-06	5143
bin	9.5408e-06	5204
bin	9.612e-06	5052
bin	9.6832e-06	4946
bin	9.7544e-06	4902
bin	9.8256e-06	4830
bin	9.8968e-06	4886
bin	9.968e-06	4785
bin	1.00392e-05	4678
bin	1.01104e-05	4666
bin	1.01816e-05	4663
bin	1.02528e-05	4564
bin	1.0324e-05	4460
bin	1.03952e-05	4555
bin	1.04664e-05	4601
bin	1.05376e-05	4523
bin	1.06088e-05	4482
bin	1.068e-05	4321
bin	1.07512e-05	4378
bin	1.08224e-05	4238
bin	1.08936e-05	4340
bin	1.09648e-05	4270
bin	1.1036e-05	4236
bin	1.11072e-05	4213
bin	1.11784e-05	4063
bin	1.12496e-05	4119
bin	1.13208e-05	4094
bin	1.1392e-05	3932
bin	1.14632e-05	4031
bin	1.15344e-05	3962
bin	1.16056e-05	3909
bin	1.16768e-05	3895
bin	1.1748e-05	3946
bin	1.18192e-05	3808
bin	1.18904e-05	3829
bin	1.19616e-05	3750
bin	1.20328e-05	3805
bin	1.2104e-05	3877
bin	1.21752e-05	3806
bin	1.22464e-05	3845
bin	1.23176e-05	3808
bin	1.23888e-05	3872
bin	1.246e-05	3694
bin	1.25312e-05	3714
bin	1.26024e-05	3690
bin	1.26736e-05	3808
bin	1.27448e-05	3647
bin	1.2816e-05	3714
bin	1.28872e-05	3665
bin	1.29584e-05	3528
bin	1.30296e-05	3690
bin	1.31008e-05	3569
bin	1.3172e-05	3635
bin	1.32432e-05	3542
bin	1.33144e-05	3512
bin	1.33856e-05	3538
bin	1.34568e-05	3478
bin	1.3528e-05	3358
bin	1.35992e-05	3324
bin	1.36704e-05	3395
bin	1.37416e-05	3384
bin	1.38128e-05	3383
bin	1.3884e-05	3281
bin	1.39552e-05	3293
bin	1.40264e-05	3247
bin	1.40976e-05	3251
bin	1.41688e-05	3245
bin	1.424e-05	3218
bin	1.43112e-05	3085
bin	1.43824e-05	3139
bin	1.44536e-05	3183
bin	1.45248e-05	3146
bin	1.4596e-05	3194
bin	1.46672e-05	3031
bin	1.47384e-05	3039
bin	1.48096e-05	3046
bin	1.48808e-05	3115
bin	1.4952e-05	3112
bin	1.50232e-05	3108
bin	1.50944e-05	3043
bin	1.51656e-05	3055
bin	1.52368e-05	2986
bin	1.5308e-05	3070
bin	1.53792e-05	3006
bin	1.54504e-05	3119
bin	1.55216e-05	2985
bin	1.55928e-05	3007
bin	1.5664e-05	3008
bin	1.57352e-05	3002
bin	1.58064e-05	3013
bin	1.58776e-05	2991
bin	1.59488e-05	3062
bin	1.602e-05	2989
bin	1.60912e-05	3027
bin	1.61624e-05	2961
bin	1.62336e-05	2839
bin	1.63048e-05	2927
bin	1.6376e-05	2885
bin	1.64472e-05	2896
bin	1.65184e-05	2835
bin	1.65896e-05	2816
bin	1.66608e-05	2805
bin	1.6732e-05	2716
bin	1.68032e-05	2789
bin	1.68744e-05	2686
bin	1.69456e-05	2713
bin	1.70168e-05	2795
bin	1.7088e-05	2665
bin	1.71592e-05	2685
bin	1.72304e-05	2681
bin	1.73016e-05	2648
bin	1.73728e-05	2649
bin	1.7444e-05	2539
bin	1.75152e-05	2616
bin	1.75864e-05	2552
bin	1.76576e-05	2642
bin	1.77288e-05	2571
bin	1.78e-05	2579
bin	1.78712e-05	2506
bin	1.79424e-05	2494
bin	1.80136e-05	2466
bin	1.80848e-05	2530
bin	1.8156e-05	2545
bin	1.82272e-05	2475
bin	1.82984e-05	2584
bin	1.83696e-05	2466
bin	1.84408e-05	2427
bin	1.8512e-05	2414
bin	1.85832e-05	2514
bin	1.86544e-05	2286
bin	1.87256e-05	2390
bin	1.87968e-05	2347
bin	1.8868e-05	2364
bin	1.89392e-05	2384
bin	1.90104e-05	2353
bin	1.90816e-05	2411
bin	1.91528e-05	2427
bin	1.9224e-05	2364
bin	1.92952e-05	2379
bin	1.93664e-05	2425
bin	1.94376e-05	2420
bin	1.95088e-05	2373
bin	1.958e-05	2369
bin	1.96512e-05	2294
bin	1.97224e-05	2302
bin	1.97936e-05	2370
bin	1.98648e-05	2325
bin	1.9936e-05	2275
bin	2.00072e-05	2334
bin	2.00784e-05	2345
bin	2.01496e-05	2374
bin	2.02208e-05	2286
bin	2.0292e-05	2266
bin	2.03632e-05	2348
bin	2.04344e-05	2384
bin	2.05056e-05	2351
bin	2.05768e-05	2392
bin	2.0648e-05	2373
bin	2.07192e-05	2423
bin	2.07904e-05	2347
bin	2.08616e-05	2327
bin	2.09328e-05	2344
bin	2.1004e-05	2299
bin	2.10752e-05	2360
bin	2.11464e-05	2280
bin	2.12176e-05	2335
bin	2.12888e-05	2183
bin	2.136e-05	2251
bin	2.14312e-05	2278
bin	2.15024e-05	2309
bin	2.15736e-05	2289
bin	2.16448e-05	2291
bin	2.1716e-05	2182
bin	2.17872e-05	2179
bin	2.18584e-05	2191
bin	2.19296e-05	2189
bin	2.20008e-05	2219
bin	2.2072e-05	2151
bin	2.21432e-05	2170
bin	2.22144e-05	2192
bin	2.22856e-05	2272
bin	2.23568e-05	2203
bin	2.2428e-05	2155
bin	2.24992e-05	2219
bin	2.25704e-05	2175
bin	2.26416e-05	2264
bin	2.27128e-05	2314
bin	2.2784e-05	2191
bin	2.28552e-05	2262
bin	2.29264e-05	2285
bin	2.29976e-05	2276
bin	2.30688e-05	2155
bin	2.314e-05	2262
bin	2.32112e-05	2217
bin	2.32824e-05	2214
bin	2.33536e-05	2183
bin	2.34248e-05	2255
bin	2.3496e-05	2194
bin	2.35672e-05	2227
bin	2.36384e-05	2157
bin	2.37096e-05	2147
bin	2.37808e-05	2105
bin	2.3852e-05	2165
bin	2.39232e-05	2172
bin	2.39944e-05	2163
bin	2.40656e-05	2102
bin	2.41368e-05	2129
bin	2.4208e-05	2168
bin	2.42792e-05	2109
bin	2.43504e-05	2144
bin	2.44216e-05	2133
bin	2.44928e-05	2158
bin	2.4564e-05	2082
bin	2.46352e-05	2130
bin	2.47064e-05	2242
bin	2.47776e-05	2178
bin	2.48488e-05	2158
bin	2.492e-05	2184
bin	2.49912e-05	2172
bin	2.50624e-05	2143
bin	2.51336e-05	2095
bin	2.52048e-05	2182
bin	2.5276e-05	2119
bin	2.53472e-05	2171
bin	2.54184e-05	2183
bin	2.54896e-05	2136
bin	2.55608e-05	2126
bin	2.5632e-05	2132
bin	2.57032e-05	2017
bin	2.57744e-05	2071
bin	2.58456e-05	2048
bin	2.59168e-05	2048
bin	2.5988e-05	1995
bin	2.60592e-05	2011
bin	2.61304e-05	2019
bin	2.62016e-05	2001
bin	2.62728e-05	2019
bin	2.6344e-05	2015
bin	2.64152e-05	1937
bin	2.64864e-05	1986
bin	2.65576e-05	1990
bin	2.66288e-05	2026
bin	2.67e-05	2031
bin	2.67712e-05	2049
bin	2.68424e-05	2004
bin	2.69136e-05	1915
bin	2.69848e-05	1953
bin	2.7056e-05	1912
bin	2.71272e-05	1926
bin	2.71984e-05	1950
bin	2.72696e-05	1933
bin	2.73408e-05	1960
bin	2.7412e-05	1871
bin	2.74832e-05	2015
bin	2.75544e-05	2001
bin	2.76256e-05	2060
bin	2.76968e-05	1956
bin	2.7768e-05	2011
bin	2.78392e-05	1977
bin	2.79104e-05	1898
bin	2.79816e-05	1926
bin	2.80528e-05	1994
bin	2.8124e-05	1972
bin	2.81952e-05	1966
bin	2.82664e-05	2004
bin	2.83376e-05	1944
bin	2.84088e-05	1940
bin	2.848e-05	1857
bin	2.85512e-05	1990
bin	2.86224e-05	1876
bin	2.86936e-05	1961
bin	2.87648e-05	1911
bin	2.8836e-05	1935
bin	2.89072e-05	1987
bin	2.89784e-05	1974
bin	2.90496e-05	2013
bin	2.91208e-05	1914
bin	2.9192e-05	2024
bin	2.92632e-05	2034
bin	2.93344e-05	2022
bin	2.94056e-05	1896
bin	2.94768e-05	1993
bin	2.9548e-05	2023
bin	2.96192e-05	1944
bin	2.96904e-05	1951
bin	2.97616e-05	1937
bin	2.98328e-05	1930
bin	2.9904e-05	1852
bin	2.99752e-05	1976
bin	3.00464e-05	1977
bin	3.01176e-05	1881
bin	3.01888e-05	1836
bin	3.026e-05	1981
bin	3.03312e-05	1848
bin	3.04024e-05	1926
bin	3.04736e-05	1957
bin	3.05448e-05	1943
bin	3.0616e-05	1994
bin	3.06872e-05	1940
bin	3.07584e-05	1948
bin	3.08296e-05	1950
bin	3.09008e-05	2015
bin	3.0972e-05	1926
bin	3.10432e-05	1945
bin	3.11144e-05	1901
bin	3.11856e-05	1968
bin	3.12568e-05	1964
bin	3.1328e-05	1934
bin	3.13992e-05	1883
bin	3.14704e-05	1852
bin	3.15416e-05	1927
bin	3.16128e-05	1912
bin	3.1684e-05	1994
bin	3.17552e-05	1974
bin	3.18264e-05	1954
bin	3.18976e-05	1973
bin	3.19688e-05	1952
bin	3.204e-05	1967
bin	3.21112e-05	1964
bin	3.21824e-05	1983
bin	3.22536e-05	1970
bin	3.23248e-05	1904
bin	3.2396e-05	1969
bin	3.24672e-05	1978
bin	3.25384e-05	1957
bin	3.26096e-05	1951
bin	3.26808e-05	1880
bin	3.2752e-05	1938
bin	3.28232e-05	1914
bin	3.28944e-05	1908
bin	3.29656e-05	2050
bin	3.30368e-05	1959
bin	3.3108e-05	1917
bin	3.31792e-05	1921
bin	3.32504e-05	1862
bin	3.33216e-05	1925
bin	3.33928e-05	1901
bin	3.3464e-05	1921
bin	3.35352e-05	2003
bin	3.36064e-05	1948
bin	3.36776e-05	1952
bin	3.37488e-05	1936
bin	3.382e-05	1947
bin	3.38912e-05	1818
bin	3.39624e-05	1898
bin	3.40336e-05	1939
bin	3.41048e-05	1865
bin	3.4176e-05	1863
bin	3.42472e-05	1950
bin	3.43184e-05	1854
bin	3.43896e-05	1876
bin	3.44608e-05	1873
bin	3.4532e-05	1886
bin	3.46032e-05	1864
bin	3.46744e-05	1824
bin	3.47456e-05	1872
bin	3.48168e-05	1828
bin	3.4888e-05	1883
bin	3.49592e-05	1886
bin	3.50304e-05	1898
bin	3.51016e-05	1906
bin	3.51728e-05	1871
bin	3.5244e-05	1826
bin	3.53152e-05	1812
bin	3.53864e-05	1842
bin	3.54576e-05	1813
bin	3.55288e-05	1843
bin	3.56e-05	2237863
statistic Torus3d_bub.timer 	"Life Times"
field count 6291456
field mean 0.00042227411567048
field stddev 0.00052412221665816
field sum 2656.7190186797
field sqrsum 2.850152145047
field min 3.77331349e-07
field max 0.002759749333333
bin	-INF	0
bin	0	6144
bin	8.544e-07	8192
bin	1.7088e-06	9733
bin	2.5632e-06	12482
bin	3.4176e-06	15266
bin	4.272e-06	17893
bin	5.1264e-06	21150
bin	5.9808e-06	23907
bin	6.8352e-06	27525
bin	7.6896e-06	31253
bin	8.544e-06	34256
bin	9.3984e-06	37167
bin	1.02528e-05	33654
bin	1.11072e-05	34152
bin	1.19616e-05	35805
bin	1.2816e-05	38306
bin	1.36704e-05	39528
bin	1.45248e-05	41439
bin	1.53792e-05	42957
bin	1.62336e-05	44563
bin	1.7088e-05	46070
bin	1.79424e-05	47405
bin	1.87968e-05	48863
bin	1.96512e-05	50820
bin	2.05056e-05	52775
bin	2.136e-05	54754
bin	2.22144e-05	56635
bin	2.30688e-05	59145
bin	2.39232e-05	61256
bin	2.47776e-05	62862
bin	2.5632e-05	64521
bin	2.64864e-05	65682
bin	2.73408e-05	66015
bin	2.81952e-05	66083
bin	2.90496e-05	66365
bin	2.9904e-05	65213
bin	3.07584e-05	64551
bin	3.16128e-05	63582
bin	3.24672e-05	62149
bin	3.33216e-05	61074
bin	3.4176e-05	59390
bin	3.50304e-05	57710
bin	3.58848e-05	56482
bin	3.67392e-05	55122
bin	3.75936e-05	53316
bin	3.8448e-05	52038
bin	3.93024e-05	50818
bin	4.01568e-05	49547
bin	4.10112e-05	48261
bin	4.18656e-05	45767
bin	4.272e-05	42041
bin	4.35744e-05	39310
bin	4.44288e-05	35993
bin	4.52832e-05	33349
bin	4.61376e-05	30199
bin	4.6992e-05	27959
bin	4.78464e-05	25210
bin	4.87008e-05	22801
bin	4.95552e-05	20850
bin	5.04096e-05	18805
bin	5.1264e-05	17375
bin	5.21184e-05	16106
bin	5.29728e-05	14803
bin	5.38272e-05	14125
bin	5.46816e-05	13192
bin	5.5536e-05	12595
bin	5.63904e-05	12129
bin	5.72448e-05	11671
bin	5.80992e-05	11169
bin	5.89536e-05	10811
bin	5.9808e-05	10323
bin	6.06624e-05	10019
bin	6.15168e-05	9846
bin	6.23712e-05	9511
bin	6.32256e-05	9656
bin	6.408e-05	9244
bin	6.49344e-05	9249
bin	6.57888e-05	9055
bin	6.66432e-05	8972
bin	6.74976e-05	9043
bin	6.8352e-05	9059
bin	6.92064e-05	8895
bin	7.00608e-05	8815
bin	7.09152e-05	8706
bin	7.17696e-05	8873
bin	7.2624e-05	8797
bin	7.34784e-05	8820
bin	7.43328e-05	8736
bin	7.51872e-05	8885
bin	7.60416e-05	8877
bin	7.6896e-05	8875
bin	7.77504e-05	8838
bin	7.86048e-05	8903
bin	7.94592e-05	8957
bin	8.03136e-05	9015
bin	8.1168e-05	9185
bin	8.20224e-05	9127
bin	8.28768e-05	9306
bin	8.37312e-05	9339
bin	8.45856e-05	9158
bin	8.544e-05	8931
bin	8.62944e-05	8679
bin	8.71488e-05	8362
bin	8.80032e-05	8029
bin	8.88576e-05	7815
bin	8.9712e-05	7467
bin	9.05664e-05	6957
bin	9.14208e-05	6704
bin	9.22752e-05	6497
bin	9.31296e-05	6229
bin	9.3984e-05	6008
bin	9.48384e-05	5805
bin	9.56928e-05	5620
bin	9.65472e-05	5479
bin	9.74016e-05	5376
bin	9.8256e-05	5213
bin	9.91104e-05	5192
bin	9.99648e-05	5223
bin	0.0001008192	5038
bin	0.0001016736	4963
bin	0.000102528	4944
bin	0.0001033824	5014
bin	0.0001042368	4943
bin	0.0001050912	5031
bin	0.0001059456	4863
bin	0.0001068	4819
bin	0.0001076544	4899
bin	0.0001085088	4904
bin	0.0001093632	4801
bin	0.0001102176	4893
bin	0.000111072	4997
bin	0.0001119264	4907
bin	0.0001127808	4780
bin	0.0001136352	4877
bin	0.0001144896	4925
bin	0.000115344	4783
bin	0.0001161984	4868
bin	0.0001170528	5008
bin	0.0001179072	4871
bin	0.0001187616	4987
bin	0.000119616	5058
bin	0.0001204704	5035
bin	0.0001213248	5113
bin	0.0001221792	5196
bin	0.0001230336	5156
bin	0.000123888	5182
bin	0.0001247424	5296
bin	0.0001255968	5168
bin	0.0001264512	5035
bin	0.0001273056	4863
bin	0.00012816	4905
bin	0.0001290144	4786
bin	0.0001298688	4703
bin	0.0001307232	4362
bin	0.0001315776	4401
bin	0.000132432	4139
bin	0.0001332864	4132
bin	0.0001341408	3902
bin	0.0001349952	3912
bin	0.0001358496	3778
bin	0.000136704	3841
bin	0.0001375584	3724
bin	0.0001384128	3705
bin	0.0001392672	3611
bin	0.0001401216	3630
bin	0.000140976	3596
bin	0.0001418304	3512
bin	0.0001426848	3492
bin	0.0001435392	3483
bin	0.0001443936	3518
bin	0.000145248	3489
bin	0.0001461024	3564
bin	0.0001469568	3483
bin	0.0001478112	3471
bin	0.0001486656	3449
bin	0.00014952	3499
bin	0.0001503744	3481
bin	0.0001512288	3391
bin	0.0001520832	3433
bin	0.0001529376	3401
bin	0.000153792	3502
bin	0.0001546464	3504
bin	0.0001555008	3421
bin	0.0001563552	3560
bin	0.0001572096	3506
bin	0.000158064	3664
bin	0.0001589184	3704
bin	0.0001597728	3622
bin	0.0001606272	3610
bin	0.0001614816	3603
bin	0.000162336	3652
bin	0.0001631904	3655
bin	0.0001640448	3716
bin	0.0001648992	3841
bin	0.0001657536	3850
bin	0.000166608	3765
bin	0.0001674624	3759
bin	0.0001683168	3679
bin	0.0001691712	3626
bin	0.0001700256	3599
bin	0.00017088	3468
bin	0.0001717344	3417
bin	0.0001725888	3304
bin	0.0001734432	3173
bin	0.0001742976	3146
bin	0.000175152	3164
bin	0.0001760064	2891
bin	0.0001768608	2919
bin	0.0001777152	2932
bin	0.0001785696	3020
bin	0.000179424	2860
bin	0.0001802784	2844
bin	0.0001811328	2822
bin	0.0001819872	2812
bin	0.0001828416	2861
bin	0.000183696	2718
bin	0.0001845504	2788
bin	0.0001854048	2801
bin	0.0001862592	2616
bin	0.0001871136	2659
bin	0.000187968	2665
bin	0.0001888224	2659
bin	0.0001896768	2834
bin	0.0001905312	2686
bin	0.0001913856	2689
bin	0.00019224	2787
bin	0.0001930944	2713
bin	0.0001939488	2814
bin	0.0001948032	2797
bin	0.0001956576	2824
bin	0.000196512	2747
bin	0.0001973664	2926
bin	0.0001982208	2889
bin	0.0001990752	2970
bin	0.0001999296	2892
bin	0.000200784	2918
bin	0.0002016384	3009
bin	0.0002024928	2988
bin	0.0002033472	2875
bin	0.0002042016	2947
bin	0.000205056	2928
bin	0.0002059104	2992
bin	0.0002067648	2936
bin	0.0002076192	2897
bin	0.0002084736	2928
bin	0.000209328	2928
bin	0.0002101824	2827
bin	0.0002110368	2829
bin	0.0002118912	2828
bin	0.0002127456	2733
bin	0.0002136	2650
bin	0.0002144544	2693
bin	0.0002153088	2585
bin	0.0002161632	2590
bin	0.0002170176	2563
bin	0.000217872	2494
bin	0.0002187264	2489
bin	0.0002195808	2431
bin	0.0002204352	2373
bin	0.0002212896	2383
bin	0.000222144	2362
bin	0.0002229984	2425
bin	0.0002238528	2433
bin	0.0002247072	2302
bin	0.0002255616	2341
bin	0.000226416	2365
bin	0.0002272704	2283
bin	0.0002281248	2358
bin	0.0002289792	2328
bin	0.0002298336	2262
bin	0.000230688	2240
bin	0.0002315424	2355
bin	0.0002323968	2354
bin	0.0002332512	2337
bin	0.0002341056	2388
bin	0.00023496	2367
bin	0.0002358144	2429
bin	0.0002366688	2404
bin	0.0002375232	2436
bin	0.0002383776	2414
bin	0.000239232	2369
bin	0.0002400864	2335
bin	0.0002409408	2424
bin	0.0002417952	2472
bin	0.0002426496	2494
bin	0.000243504	2499
bin	0.0002443584	2510
bin	0.0002452128	2534
bin	0.0002460672	2564
bin	0.0002469216	2620
bin	0.000247776	2568
bin	0.0002486304	2577
bin	0.0002494848	2558
bin	0.0002503392	2499
bin	0.0002511936	2435
bin	0.000252048	2429
bin	0.0002529024	2386
bin	0.0002537568	2318
bin	0.0002546112	2309
bin	0.0002554656	2259
bin	0.00025632	2226
bin	0.0002571744	2237
bin	0.0002580288	2147
bin	0.0002588832	2097
bin	0.0002597376	2124
bin	0.000260592	2082
bin	0.0002614464	2051
bin	0.0002623008	2068
bin	0.0002631552	2017
bin	0.0002640096	2114
bin	0.000264864	2079
bin	0.0002657184	2047
bin	0.0002665728	2051
bin	0.0002674272	2059
bin	0.0002682816	1988
bin	0.000269136	2107
bin	0.0002699904	2046
bin	0.0002708448	2103
bin	0.0002716992	2094
bin	0.0002725536	2165
bin	0.000273408	2131
bin	0.0002742624	2115
bin	0.0002751168	2173
bin	0.0002759712	2088
bin	0.0002768256	2103
bin	0.00027768	2178
bin	0.0002785344	2156
bin	0.0002793888	2167
bin	0.0002802432	2227
bin	0.0002810976	2212
bin	0.000281952	2271
bin	0.0002828064	2219
bin	0.0002836608	2217
bin	0.0002845152	2279
bin	0.0002853696	2245
bin	0.000286224	2235
bin	0.0002870784	2221
bin	0.0002879328	2279
bin	0.0002887872	2284
bin	0.0002896416	2314
bin	0.000290496	2300
bin	0.0002913504	2231
bin	0.0002922048	2180
bin	0.0002930592	2179
bin	0.0002939136	2150
bin	0.000294768	2065
bin	0.0002956224	2124
bin	0.0002964768	2025
bin	0.0002973312	2020
bin	0.0002981856	1931
bin	0.00029904	1992
bin	0.0002998944	1935
bin	0.0003007488	1972
bin	0.0003016032	1836
bin	0.0003024576	1907
bin	0.000303312	1785
bin	0.0003041664	1853
bin	0.0003050208	1907
bin	0.0003058752	1893
bin	0.0003067296	1941
bin	0.000307584	1799
bin	0.0003084384	1931
bin	0.0003092928	1948
bin	0.0003101472	1853
bin	0.0003110016	1892
bin	0.000311856	1978
bin	0.0003127104	1913
bin	0.0003135648	1925
bin	0.0003144192	1984
bin	0.0003152736	1996
bin	0.000316128	1964
bin	0.0003169824	2034
bin	0.0003178368	2037
bin	0.0003186912	1972
bin	0.0003195456	1950
bin	0.0003204	2065
bin	0.0003212544	2108
bin	0.0003221088	2090
bin	0.0003229632	1965
bin	0.0003238176	1929
bin	0.000324672	2031
bin	0.0003255264	2127
bin	0.0003263808	2030
bin	0.0003272352	2080
bin	0.0003280896	2119
bin	0.000328944	2132
bin	0.0003297984	2153
bin	0.0003306528	2161
bin	0.0003315072	2093
bin	0.0003323616	2107
bin	0.000333216	2050
bin	0.0003340704	2048
bin	0.0003349248	1950
bin	0.0003357792	1920
bin	0.0003366336	1889
bin	0.000337488	1794
bin	0.0003383424	1787
bin	0.0003391968	1870
bin	0.0003400512	1954
bin	0.0003409056	1839
bin	0.00034176	1867
bin	0.0003426144	1785
bin	0.0003434688	1837
bin	0.0003443232	1787
bin	0.0003451776	1800
bin	0.000346032	1830
bin	0.0003468864	1852
bin	0.0003477408	1819
bin	0.0003485952	1819
bin	0.0003494496	1809
bin	0.000350304	1786
bin	0.0003511584	1828
bin	0.0003520128	1899
bin	0.0003528672	1889
bin	0.0003537216	1896
bin	0.000354576	1892
bin	0.0003554304	1826
bin	0.0003562848	1813
bin	0.0003571392	1842
bin	0.0003579936	1839
bin	0.000358848	1941
bin	0.0003597024	1954
bin	0.0003605568	1904
bin	0.0003614112	1936
bin	0.0003622656	1901
bin	0.00036312	1919
bin	0.0003639744	1916
bin	0.0003648288	1891
bin	0.0003656832	1952
bin	0.0003665376	1943
bin	0.000367392	1957
bin	0.0003682464	1969
bin	0.0003691008	1901
bin	0.0003699552	1983
bin	0.0003708096	2044
bin	0.000371664	1965
bin	0.0003725184	1948
bin	0.0003733728	2023
bin	0.0003742272	1983
bin	0.0003750816	1946
bin	0.000375936	1948
bin	0.0003767904	1901
bin	0.0003776448	1846
bin	0.0003784992	1837
bin	0.0003793536	1852
bin	0.000380208	1914
bin	0.0003810624	1875
bin	0.0003819168	1798
bin	0.0003827712	1823
bin	0.0003836256	1774
bin	0.00038448	1736
bin	0.0003853344	1724
bin	0.0003861888	1760
bin	0.0003870432	1754
bin	0.0003878976	1723
bin	0.000388752	1800
bin	0.0003896064	1817
bin	0.0003904608	1791
bin	0.0003913152	1798
bin	0.0003921696	1838
bin	0.000393024	1765
bin	0.0003938784	1776
bin	0.0003947328	1813
bin	0.0003955872	1787
bin	0.0003964416	1754
bin	0.000397296	1741
bin	0.0003981504	1750
bin	0.0003990048	1831
bin	0.0003998592	1759
bin	0.0004007136	1773
bin	0.000401568	1886
bin	0.0004024224	1863
bin	0.0004032768	1792
bin	0.0004041312	1821
bin	0.0004049856	1837
bin	0.00040584	1838
bin	0.0004066944	1863
bin	0.0004075488	1912
bin	0.0004084032	1912
bin	0.0004092576	1933
bin	0.000410112	1935
bin	0.0004109664	1909
bin	0.0004118208	1839
bin	0.0004126752	1957
bin	0.0004135296	1915
bin	0.000414384	1904
bin	0.0004152384	1894
bin	0.0004160928	1804
bin	0.0004169472	1835
bin	0.0004178016	1832
bin	0.000418656	1825
bin	0.0004195104	1758
bin	0.0004203648	1804
bin	0.0004212192	1825
bin	0.0004220736	1751
bin	0.000422928	1757
bin	0.0004237824	1685
bin	0.0004246368	1659
bin	0.0004254912	1719
bin	0.0004263456	1716
bin	0.0004272	2195101
