version 2
run Transposition-15-20120710-08:23:13-25269
attr alg 3
attr buf 8
attr configname Transposition
attr datetime 20120710-08:23:13
attr delta 0.8
attr experiment Transposition
attr ext true
attr inifile altro.ini
attr iterationvars "$buf=8, $ext=true, $ofedge=1, $delta=0.8, $alg=3"
attr iterationvars2 "$buf=8, $ext=true, $ofedge=1, $delta=0.8, $alg=3, $repetition=0"
attr measurement "$buf=8, $ext=true, $ofedge=1, $delta=0.8, $alg=3"
attr network Torus3d_bub
attr ofedge 1
attr processid 25269
attr repetition 0
attr replication #0
attr resultdir altro-results
attr runnumber 15
attr seedset 15

scalar . 	alg 	3
scalar . 	buf 	8
scalar . 	delta 	0.8
scalar . 	ofedge 	1
scalar Torus3d_bub.timer 	#endTime 	0.004683116326487
scalar Torus3d_bub.timer 	#totalHops 	84165882
scalar Torus3d_bub.timer 	#totalPacks 	6291456
scalar Torus3d_bub.timer 	#totalDerouted 	2304743
scalar Torus3d_bub.timer 	#totalOutFlanked 	1833353
scalar Torus3d_bub.timer 	#totalCQRed 	471390
scalar Torus3d_bub.timer 	#LB 	0.000786432
scalar Torus3d_bub.timer 	#ratio 	0.16792920465205
statistic Torus3d_bub.timer 	"Hop Times"
field count 6193152
field mean 0.00014008893773803
field stddev 0.00010483493757512
field sum 867.59208493018
field sqrsum 0.18960503820938
field min 3.97925925e-07
field max 0.000888324798628
bin	-INF	0
bin	0	0
bin	7.12e-08	0
bin	1.424e-07	0
bin	2.136e-07	0
bin	2.848e-07	0
bin	3.56e-07	23
bin	4.272e-07	739
bin	4.984e-07	2004
bin	5.696e-07	3156
bin	6.408e-07	4492
bin	7.12e-07	5937
bin	7.832e-07	7301
bin	8.544e-07	8572
bin	9.256e-07	9489
bin	9.968e-07	10366
bin	1.068e-06	11143
bin	1.1392e-06	11817
bin	1.2104e-06	12821
bin	1.2816e-06	13812
bin	1.3528e-06	15403
bin	1.424e-06	16824
bin	1.4952e-06	18656
bin	1.5664e-06	20336
bin	1.6376e-06	21447
bin	1.7088e-06	22735
bin	1.78e-06	22971
bin	1.8512e-06	23333
bin	1.9224e-06	23290
bin	1.9936e-06	23768
bin	2.0648e-06	23076
bin	2.136e-06	22821
bin	2.2072e-06	22001
bin	2.2784e-06	21876
bin	2.3496e-06	20752
bin	2.4208e-06	20058
bin	2.492e-06	19491
bin	2.5632e-06	18542
bin	2.6344e-06	17802
bin	2.7056e-06	16874
bin	2.7768e-06	16183
bin	2.848e-06	15401
bin	2.9192e-06	14494
bin	2.9904e-06	13875
bin	3.0616e-06	13064
bin	3.1328e-06	12459
bin	3.204e-06	11847
bin	3.2752e-06	11148
bin	3.3464e-06	10763
bin	3.4176e-06	9998
bin	3.4888e-06	9542
bin	3.56e-06	9078
bin	3.6312e-06	8745
bin	3.7024e-06	8411
bin	3.7736e-06	7971
bin	3.8448e-06	7661
bin	3.916e-06	7241
bin	3.9872e-06	7077
bin	4.0584e-06	6695
bin	4.1296e-06	6379
bin	4.2008e-06	6133
bin	4.272e-06	5861
bin	4.3432e-06	5660
bin	4.4144e-06	5467
bin	4.4856e-06	5235
bin	4.5568e-06	4986
bin	4.628e-06	4817
bin	4.6992e-06	4615
bin	4.7704e-06	4654
bin	4.8416e-06	4415
bin	4.9128e-06	4428
bin	4.984e-06	4220
bin	5.0552e-06	4157
bin	5.1264e-06	4020
bin	5.1976e-06	4053
bin	5.2688e-06	4050
bin	5.34e-06	3787
bin	5.4112e-06	3740
bin	5.4824e-06	3792
bin	5.5536e-06	3562
bin	5.6248e-06	3407
bin	5.696e-06	3445
bin	5.7672e-06	3352
bin	5.8384e-06	3200
bin	5.9096e-06	3257
bin	5.9808e-06	3160
bin	6.052e-06	3054
bin	6.1232e-06	3008
bin	6.1944e-06	3099
bin	6.2656e-06	3012
bin	6.3368e-06	3008
bin	6.408e-06	2909
bin	6.4792e-06	2791
bin	6.5504e-06	2848
bin	6.6216e-06	2702
bin	6.6928e-06	2556
bin	6.764e-06	2559
bin	6.8352e-06	2472
bin	6.9064e-06	2352
bin	6.9776e-06	2315
bin	7.0488e-06	2260
bin	7.12e-06	2243
bin	7.1912e-06	2155
bin	7.2624e-06	2086
bin	7.3336e-06	2051
bin	7.4048e-06	1995
bin	7.476e-06	2016
bin	7.5472e-06	1982
bin	7.6184e-06	2002
bin	7.6896e-06	1940
bin	7.7608e-06	1949
bin	7.832e-06	1949
bin	7.9032e-06	1900
bin	7.9744e-06	1949
bin	8.0456e-06	1856
bin	8.1168e-06	1933
bin	8.188e-06	1829
bin	8.2592e-06	1840
bin	8.3304e-06	1827
bin	8.4016e-06	1817
bin	8.4728e-06	1829
bin	8.544e-06	1741
bin	8.6152e-06	1718
bin	8.6864e-06	1616
bin	8.7576e-06	1616
bin	8.8288e-06	1721
bin	8.9e-06	1663
bin	8.9712e-06	1619
bin	9.0424e-06	1679
bin	9.1136e-06	1537
bin	9.1848e-06	1605
bin	9.256e-06	1607
bin	9.3272e-06	1550
bin	9.3984e-06	1504
bin	9.4696e-06	1575
bin	9.5408e-06	1539
bin	9.612e-06	1593
bin	9.6832e-06	1541
bin	9.7544e-06	1525
bin	9.8256e-06	1503
bin	9.8968e-06	1576
bin	9.968e-06	1517
bin	1.00392e-05	1560
bin	1.01104e-05	1496
bin	1.01816e-05	1444
bin	1.02528e-05	1504
bin	1.0324e-05	1399
bin	1.03952e-05	1438
bin	1.04664e-05	1410
bin	1.05376e-05	1419
bin	1.06088e-05	1353
bin	1.068e-05	1390
bin	1.07512e-05	1283
bin	1.08224e-05	1320
bin	1.08936e-05	1304
bin	1.09648e-05	1359
bin	1.1036e-05	1394
bin	1.11072e-05	1354
bin	1.11784e-05	1384
bin	1.12496e-05	1424
bin	1.13208e-05	1374
bin	1.1392e-05	1435
bin	1.14632e-05	1329
bin	1.15344e-05	1369
bin	1.16056e-05	1388
bin	1.16768e-05	1378
bin	1.1748e-05	1406
bin	1.18192e-05	1370
bin	1.18904e-05	1332
bin	1.19616e-05	1325
bin	1.20328e-05	1289
bin	1.2104e-05	1320
bin	1.21752e-05	1261
bin	1.22464e-05	1268
bin	1.23176e-05	1297
bin	1.23888e-05	1237
bin	1.246e-05	1246
bin	1.25312e-05	1272
bin	1.26024e-05	1241
bin	1.26736e-05	1254
bin	1.27448e-05	1131
bin	1.2816e-05	1223
bin	1.28872e-05	1226
bin	1.29584e-05	1176
bin	1.30296e-05	1172
bin	1.31008e-05	1215
bin	1.3172e-05	1248
bin	1.32432e-05	1145
bin	1.33144e-05	1155
bin	1.33856e-05	1149
bin	1.34568e-05	1156
bin	1.3528e-05	1102
bin	1.35992e-05	1187
bin	1.36704e-05	1087
bin	1.37416e-05	1121
bin	1.38128e-05	1110
bin	1.3884e-05	1070
bin	1.39552e-05	1097
bin	1.40264e-05	1039
bin	1.40976e-05	1048
bin	1.41688e-05	1038
bin	1.424e-05	1028
bin	1.43112e-05	1000
bin	1.43824e-05	987
bin	1.44536e-05	1025
bin	1.45248e-05	1022
bin	1.4596e-05	1006
bin	1.46672e-05	1016
bin	1.47384e-05	1055
bin	1.48096e-05	1038
bin	1.48808e-05	1022
bin	1.4952e-05	1041
bin	1.50232e-05	1057
bin	1.50944e-05	980
bin	1.51656e-05	1019
bin	1.52368e-05	972
bin	1.5308e-05	1013
bin	1.53792e-05	983
bin	1.54504e-05	951
bin	1.55216e-05	943
bin	1.55928e-05	978
bin	1.5664e-05	965
bin	1.57352e-05	969
bin	1.58064e-05	993
bin	1.58776e-05	987
bin	1.59488e-05	920
bin	1.602e-05	953
bin	1.60912e-05	946
bin	1.61624e-05	948
bin	1.62336e-05	954
bin	1.63048e-05	1007
bin	1.6376e-05	995
bin	1.64472e-05	1009
bin	1.65184e-05	978
bin	1.65896e-05	985
bin	1.66608e-05	921
bin	1.6732e-05	950
bin	1.68032e-05	948
bin	1.68744e-05	954
bin	1.69456e-05	956
bin	1.70168e-05	999
bin	1.7088e-05	952
bin	1.71592e-05	1009
bin	1.72304e-05	936
bin	1.73016e-05	968
bin	1.73728e-05	940
bin	1.7444e-05	971
bin	1.75152e-05	962
bin	1.75864e-05	938
bin	1.76576e-05	946
bin	1.77288e-05	962
bin	1.78e-05	959
bin	1.78712e-05	954
bin	1.79424e-05	964
bin	1.80136e-05	972
bin	1.80848e-05	985
bin	1.8156e-05	1014
bin	1.82272e-05	974
bin	1.82984e-05	970
bin	1.83696e-05	949
bin	1.84408e-05	985
bin	1.8512e-05	966
bin	1.85832e-05	1002
bin	1.86544e-05	969
bin	1.87256e-05	950
bin	1.87968e-05	975
bin	1.8868e-05	1007
bin	1.89392e-05	988
bin	1.90104e-05	995
bin	1.90816e-05	921
bin	1.91528e-05	913
bin	1.9224e-05	942
bin	1.92952e-05	952
bin	1.93664e-05	960
bin	1.94376e-05	987
bin	1.95088e-05	940
bin	1.958e-05	977
bin	1.96512e-05	974
bin	1.97224e-05	946
bin	1.97936e-05	894
bin	1.98648e-05	844
bin	1.9936e-05	858
bin	2.00072e-05	875
bin	2.00784e-05	831
bin	2.01496e-05	863
bin	2.02208e-05	842
bin	2.0292e-05	892
bin	2.03632e-05	895
bin	2.04344e-05	904
bin	2.05056e-05	873
bin	2.05768e-05	852
bin	2.0648e-05	879
bin	2.07192e-05	856
bin	2.07904e-05	869
bin	2.08616e-05	815
bin	2.09328e-05	853
bin	2.1004e-05	826
bin	2.10752e-05	902
bin	2.11464e-05	892
bin	2.12176e-05	899
bin	2.12888e-05	927
bin	2.136e-05	918
bin	2.14312e-05	924
bin	2.15024e-05	888
bin	2.15736e-05	870
bin	2.16448e-05	917
bin	2.1716e-05	871
bin	2.17872e-05	875
bin	2.18584e-05	877
bin	2.19296e-05	861
bin	2.20008e-05	849
bin	2.2072e-05	811
bin	2.21432e-05	840
bin	2.22144e-05	857
bin	2.22856e-05	882
bin	2.23568e-05	906
bin	2.2428e-05	901
bin	2.24992e-05	868
bin	2.25704e-05	894
bin	2.26416e-05	855
bin	2.27128e-05	847
bin	2.2784e-05	855
bin	2.28552e-05	848
bin	2.29264e-05	837
bin	2.29976e-05	843
bin	2.30688e-05	866
bin	2.314e-05	865
bin	2.32112e-05	877
bin	2.32824e-05	897
bin	2.33536e-05	891
bin	2.34248e-05	899
bin	2.3496e-05	865
bin	2.35672e-05	875
bin	2.36384e-05	858
bin	2.37096e-05	874
bin	2.37808e-05	831
bin	2.3852e-05	792
bin	2.39232e-05	778
bin	2.39944e-05	794
bin	2.40656e-05	761
bin	2.41368e-05	836
bin	2.4208e-05	798
bin	2.42792e-05	850
bin	2.43504e-05	846
bin	2.44216e-05	855
bin	2.44928e-05	895
bin	2.4564e-05	870
bin	2.46352e-05	870
bin	2.47064e-05	861
bin	2.47776e-05	822
bin	2.48488e-05	820
bin	2.492e-05	824
bin	2.49912e-05	791
bin	2.50624e-05	839
bin	2.51336e-05	810
bin	2.52048e-05	760
bin	2.5276e-05	772
bin	2.53472e-05	802
bin	2.54184e-05	749
bin	2.54896e-05	775
bin	2.55608e-05	801
bin	2.5632e-05	773
bin	2.57032e-05	762
bin	2.57744e-05	761
bin	2.58456e-05	733
bin	2.59168e-05	726
bin	2.5988e-05	726
bin	2.60592e-05	707
bin	2.61304e-05	706
bin	2.62016e-05	678
bin	2.62728e-05	708
bin	2.6344e-05	703
bin	2.64152e-05	704
bin	2.64864e-05	689
bin	2.65576e-05	728
bin	2.66288e-05	721
bin	2.67e-05	700
bin	2.67712e-05	653
bin	2.68424e-05	671
bin	2.69136e-05	651
bin	2.69848e-05	643
bin	2.7056e-05	675
bin	2.71272e-05	689
bin	2.71984e-05	697
bin	2.72696e-05	707
bin	2.73408e-05	692
bin	2.7412e-05	677
bin	2.74832e-05	615
bin	2.75544e-05	653
bin	2.76256e-05	697
bin	2.76968e-05	652
bin	2.7768e-05	659
bin	2.78392e-05	632
bin	2.79104e-05	628
bin	2.79816e-05	631
bin	2.80528e-05	655
bin	2.8124e-05	647
bin	2.81952e-05	604
bin	2.82664e-05	621
bin	2.83376e-05	632
bin	2.84088e-05	640
bin	2.848e-05	630
bin	2.85512e-05	646
bin	2.86224e-05	651
bin	2.86936e-05	653
bin	2.87648e-05	628
bin	2.8836e-05	640
bin	2.89072e-05	674
bin	2.89784e-05	644
bin	2.90496e-05	677
bin	2.91208e-05	652
bin	2.9192e-05	665
bin	2.92632e-05	647
bin	2.93344e-05	628
bin	2.94056e-05	663
bin	2.94768e-05	637
bin	2.9548e-05	696
bin	2.96192e-05	711
bin	2.96904e-05	666
bin	2.97616e-05	657
bin	2.98328e-05	642
bin	2.9904e-05	641
bin	2.99752e-05	629
bin	3.00464e-05	677
bin	3.01176e-05	655
bin	3.01888e-05	700
bin	3.026e-05	693
bin	3.03312e-05	693
bin	3.04024e-05	708
bin	3.04736e-05	743
bin	3.05448e-05	784
bin	3.0616e-05	801
bin	3.06872e-05	783
bin	3.07584e-05	787
bin	3.08296e-05	786
bin	3.09008e-05	796
bin	3.0972e-05	805
bin	3.10432e-05	756
bin	3.11144e-05	710
bin	3.11856e-05	729
bin	3.12568e-05	723
bin	3.1328e-05	689
bin	3.13992e-05	672
bin	3.14704e-05	676
bin	3.15416e-05	631
bin	3.16128e-05	653
bin	3.1684e-05	665
bin	3.17552e-05	662
bin	3.18264e-05	648
bin	3.18976e-05	690
bin	3.19688e-05	685
bin	3.204e-05	672
bin	3.21112e-05	703
bin	3.21824e-05	689
bin	3.22536e-05	670
bin	3.23248e-05	653
bin	3.2396e-05	740
bin	3.24672e-05	693
bin	3.25384e-05	734
bin	3.26096e-05	703
bin	3.26808e-05	717
bin	3.2752e-05	688
bin	3.28232e-05	736
bin	3.28944e-05	767
bin	3.29656e-05	712
bin	3.30368e-05	707
bin	3.3108e-05	687
bin	3.31792e-05	732
bin	3.32504e-05	738
bin	3.33216e-05	753
bin	3.33928e-05	761
bin	3.3464e-05	688
bin	3.35352e-05	724
bin	3.36064e-05	680
bin	3.36776e-05	749
bin	3.37488e-05	667
bin	3.382e-05	727
bin	3.38912e-05	695
bin	3.39624e-05	704
bin	3.40336e-05	637
bin	3.41048e-05	706
bin	3.4176e-05	696
bin	3.42472e-05	744
bin	3.43184e-05	721
bin	3.43896e-05	736
bin	3.44608e-05	741
bin	3.4532e-05	709
bin	3.46032e-05	730
bin	3.46744e-05	692
bin	3.47456e-05	704
bin	3.48168e-05	732
bin	3.4888e-05	735
bin	3.49592e-05	719
bin	3.50304e-05	718
bin	3.51016e-05	710
bin	3.51728e-05	701
bin	3.5244e-05	737
bin	3.53152e-05	749
bin	3.53864e-05	748
bin	3.54576e-05	717
bin	3.55288e-05	747
bin	3.56e-05	4927268
statistic Torus3d_bub.timer 	"Life Times"
field count 6291456
field mean 0.0018023103365835
field stddev 0.0012019777865155
field sum 11339.15618096
field sqrsum 29.526261774651
field min 3.77331845e-07
field max 0.004569797326537
bin	-INF	0
bin	0	6069
bin	8.544e-07	8091
bin	1.7088e-06	8464
bin	2.5632e-06	9700
bin	3.4176e-06	10692
bin	4.272e-06	11855
bin	5.1264e-06	13171
bin	5.9808e-06	14468
bin	6.8352e-06	15511
bin	7.6896e-06	16866
bin	8.544e-06	18127
bin	9.3984e-06	19160
bin	1.02528e-05	14270
bin	1.11072e-05	13141
bin	1.19616e-05	13875
bin	1.2816e-05	14402
bin	1.36704e-05	15189
bin	1.45248e-05	15988
bin	1.53792e-05	16398
bin	1.62336e-05	16627
bin	1.7088e-05	16989
bin	1.79424e-05	17338
bin	1.87968e-05	17423
bin	1.96512e-05	17615
bin	2.05056e-05	18201
bin	2.136e-05	18663
bin	2.22144e-05	19184
bin	2.30688e-05	19707
bin	2.39232e-05	20326
bin	2.47776e-05	20953
bin	2.5632e-05	21601
bin	2.64864e-05	22435
bin	2.73408e-05	22654
bin	2.81952e-05	22972
bin	2.90496e-05	22896
bin	2.9904e-05	23365
bin	3.07584e-05	22546
bin	3.16128e-05	22057
bin	3.24672e-05	20717
bin	3.33216e-05	19595
bin	3.4176e-05	18323
bin	3.50304e-05	17020
bin	3.58848e-05	15615
bin	3.67392e-05	14467
bin	3.75936e-05	13159
bin	3.8448e-05	11847
bin	3.93024e-05	10581
bin	4.01568e-05	9476
bin	4.10112e-05	8352
bin	4.18656e-05	7537
bin	4.272e-05	6900
bin	4.35744e-05	6225
bin	4.44288e-05	5868
bin	4.52832e-05	5359
bin	4.61376e-05	5216
bin	4.6992e-05	4832
bin	4.78464e-05	4754
bin	4.87008e-05	4689
bin	4.95552e-05	4538
bin	5.04096e-05	4345
bin	5.1264e-05	4391
bin	5.21184e-05	4249
bin	5.29728e-05	4163
bin	5.38272e-05	4370
bin	5.46816e-05	4383
bin	5.5536e-05	4379
bin	5.63904e-05	4400
bin	5.72448e-05	4217
bin	5.80992e-05	4285
bin	5.89536e-05	4216
bin	5.9808e-05	4340
bin	6.06624e-05	4330
bin	6.15168e-05	4419
bin	6.23712e-05	4319
bin	6.32256e-05	4517
bin	6.408e-05	4267
bin	6.49344e-05	4180
bin	6.57888e-05	3968
bin	6.66432e-05	3902
bin	6.74976e-05	3674
bin	6.8352e-05	3327
bin	6.92064e-05	3170
bin	7.00608e-05	2942
bin	7.09152e-05	2773
bin	7.17696e-05	2691
bin	7.2624e-05	2448
bin	7.34784e-05	2341
bin	7.43328e-05	2309
bin	7.51872e-05	2171
bin	7.60416e-05	2157
bin	7.6896e-05	2123
bin	7.77504e-05	2048
bin	7.86048e-05	2108
bin	7.94592e-05	2136
bin	8.03136e-05	2119
bin	8.1168e-05	2081
bin	8.20224e-05	2105
bin	8.28768e-05	2120
bin	8.37312e-05	2130
bin	8.45856e-05	2194
bin	8.544e-05	2082
bin	8.62944e-05	2071
bin	8.71488e-05	2054
bin	8.80032e-05	2196
bin	8.88576e-05	2103
bin	8.9712e-05	2049
bin	9.05664e-05	2142
bin	9.14208e-05	2182
bin	9.22752e-05	2263
bin	9.31296e-05	2188
bin	9.3984e-05	2215
bin	9.48384e-05	2225
bin	9.56928e-05	2119
bin	9.65472e-05	2043
bin	9.74016e-05	1981
bin	9.8256e-05	1870
bin	9.91104e-05	1910
bin	9.99648e-05	1807
bin	0.0001008192	1778
bin	0.0001016736	1710
bin	0.000102528	1579
bin	0.0001033824	1530
bin	0.0001042368	1422
bin	0.0001050912	1397
bin	0.0001059456	1362
bin	0.0001068	1437
bin	0.0001076544	1382
bin	0.0001085088	1405
bin	0.0001093632	1327
bin	0.0001102176	1379
bin	0.000111072	1422
bin	0.0001119264	1387
bin	0.0001127808	1447
bin	0.0001136352	1477
bin	0.0001144896	1439
bin	0.000115344	1458
bin	0.0001161984	1509
bin	0.0001170528	1490
bin	0.0001179072	1441
bin	0.0001187616	1549
bin	0.000119616	1414
bin	0.0001204704	1514
bin	0.0001213248	1447
bin	0.0001221792	1488
bin	0.0001230336	1577
bin	0.000123888	1613
bin	0.0001247424	1577
bin	0.0001255968	1555
bin	0.0001264512	1588
bin	0.0001273056	1520
bin	0.00012816	1498
bin	0.0001290144	1449
bin	0.0001298688	1434
bin	0.0001307232	1383
bin	0.0001315776	1352
bin	0.000132432	1270
bin	0.0001332864	1232
bin	0.0001341408	1249
bin	0.0001349952	1248
bin	0.0001358496	1268
bin	0.000136704	1267
bin	0.0001375584	1208
bin	0.0001384128	1133
bin	0.0001392672	1198
bin	0.0001401216	1132
bin	0.000140976	1137
bin	0.0001418304	1103
bin	0.0001426848	1141
bin	0.0001435392	1089
bin	0.0001443936	1156
bin	0.000145248	1154
bin	0.0001461024	1215
bin	0.0001469568	1241
bin	0.0001478112	1276
bin	0.0001486656	1229
bin	0.00014952	1272
bin	0.0001503744	1248
bin	0.0001512288	1283
bin	0.0001520832	1301
bin	0.0001529376	1372
bin	0.000153792	1331
bin	0.0001546464	1266
bin	0.0001555008	1259
bin	0.0001563552	1303
bin	0.0001572096	1300
bin	0.000158064	1349
bin	0.0001589184	1239
bin	0.0001597728	1219
bin	0.0001606272	1161
bin	0.0001614816	1153
bin	0.000162336	1106
bin	0.0001631904	1131
bin	0.0001640448	1119
bin	0.0001648992	1138
bin	0.0001657536	1080
bin	0.000166608	1076
bin	0.0001674624	1075
bin	0.0001683168	1110
bin	0.0001691712	1005
bin	0.0001700256	1026
bin	0.00017088	1037
bin	0.0001717344	1061
bin	0.0001725888	1028
bin	0.0001734432	1060
bin	0.0001742976	1105
bin	0.000175152	1129
bin	0.0001760064	1094
bin	0.0001768608	1118
bin	0.0001777152	1099
bin	0.0001785696	1128
bin	0.000179424	1134
bin	0.0001802784	1095
bin	0.0001811328	1121
bin	0.0001819872	1151
bin	0.0001828416	1111
bin	0.000183696	1187
bin	0.0001845504	1202
bin	0.0001854048	1234
bin	0.0001862592	1209
bin	0.0001871136	1205
bin	0.000187968	1183
bin	0.0001888224	1158
bin	0.0001896768	1125
bin	0.0001905312	1114
bin	0.0001913856	1081
bin	0.00019224	1113
bin	0.0001930944	1027
bin	0.0001939488	1078
bin	0.0001948032	1014
bin	0.0001956576	956
bin	0.000196512	900
bin	0.0001973664	951
bin	0.0001982208	878
bin	0.0001990752	927
bin	0.0001999296	963
bin	0.000200784	970
bin	0.0002016384	980
bin	0.0002024928	952
bin	0.0002033472	980
bin	0.0002042016	974
bin	0.000205056	988
bin	0.0002059104	1017
bin	0.0002067648	1024
bin	0.0002076192	966
bin	0.0002084736	969
bin	0.000209328	996
bin	0.0002101824	1051
bin	0.0002110368	1018
bin	0.0002118912	1094
bin	0.0002127456	1104
bin	0.0002136	1140
bin	0.0002144544	1108
bin	0.0002153088	1134
bin	0.0002161632	1104
bin	0.0002170176	1077
bin	0.000217872	1111
bin	0.0002187264	1060
bin	0.0002195808	1021
bin	0.0002204352	1027
bin	0.0002212896	991
bin	0.000222144	956
bin	0.0002229984	895
bin	0.0002238528	870
bin	0.0002247072	854
bin	0.0002255616	840
bin	0.000226416	842
bin	0.0002272704	832
bin	0.0002281248	823
bin	0.0002289792	836
bin	0.0002298336	811
bin	0.000230688	861
bin	0.0002315424	880
bin	0.0002323968	846
bin	0.0002332512	888
bin	0.0002341056	868
bin	0.00023496	879
bin	0.0002358144	945
bin	0.0002366688	935
bin	0.0002375232	964
bin	0.0002383776	922
bin	0.000239232	926
bin	0.0002400864	973
bin	0.0002409408	923
bin	0.0002417952	970
bin	0.0002426496	875
bin	0.000243504	879
bin	0.0002443584	917
bin	0.0002452128	944
bin	0.0002460672	925
bin	0.0002469216	921
bin	0.000247776	864
bin	0.0002486304	847
bin	0.0002494848	866
bin	0.0002503392	882
bin	0.0002511936	842
bin	0.000252048	850
bin	0.0002529024	861
bin	0.0002537568	862
bin	0.0002546112	876
bin	0.0002554656	864
bin	0.00025632	823
bin	0.0002571744	816
bin	0.0002580288	799
bin	0.0002588832	791
bin	0.0002597376	821
bin	0.000260592	780
bin	0.0002614464	787
bin	0.0002623008	786
bin	0.0002631552	821
bin	0.0002640096	750
bin	0.000264864	764
bin	0.0002657184	767
bin	0.0002665728	776
bin	0.0002674272	788
bin	0.0002682816	806
bin	0.000269136	796
bin	0.0002699904	826
bin	0.0002708448	829
bin	0.0002716992	848
bin	0.0002725536	851
bin	0.000273408	822
bin	0.0002742624	856
bin	0.0002751168	819
bin	0.0002759712	858
bin	0.0002768256	822
bin	0.00027768	835
bin	0.0002785344	812
bin	0.0002793888	858
bin	0.0002802432	839
bin	0.0002810976	829
bin	0.000281952	773
bin	0.0002828064	761
bin	0.0002836608	739
bin	0.0002845152	705
bin	0.0002853696	705
bin	0.000286224	653
bin	0.0002870784	651
bin	0.0002879328	603
bin	0.0002887872	654
bin	0.0002896416	656
bin	0.000290496	666
bin	0.0002913504	639
bin	0.0002922048	654
bin	0.0002930592	684
bin	0.0002939136	752
bin	0.000294768	718
bin	0.0002956224	746
bin	0.0002964768	747
bin	0.0002973312	706
bin	0.0002981856	713
bin	0.00029904	704
bin	0.0002998944	691
bin	0.0003007488	739
bin	0.0003016032	721
bin	0.0003024576	774
bin	0.000303312	752
bin	0.0003041664	768
bin	0.0003050208	758
bin	0.0003058752	717
bin	0.0003067296	730
bin	0.000307584	753
bin	0.0003084384	772
bin	0.0003092928	790
bin	0.0003101472	768
bin	0.0003110016	754
bin	0.000311856	761
bin	0.0003127104	735
bin	0.0003135648	740
bin	0.0003144192	752
bin	0.0003152736	717
bin	0.000316128	708
bin	0.0003169824	698
bin	0.0003178368	673
bin	0.0003186912	701
bin	0.0003195456	663
bin	0.0003204	697
bin	0.0003212544	677
bin	0.0003221088	623
bin	0.0003229632	626
bin	0.0003238176	644
bin	0.000324672	642
bin	0.0003255264	701
bin	0.0003263808	679
bin	0.0003272352	712
bin	0.0003280896	727
bin	0.000328944	734
bin	0.0003297984	678
bin	0.0003306528	711
bin	0.0003315072	695
bin	0.0003323616	693
bin	0.000333216	659
bin	0.0003340704	694
bin	0.0003349248	641
bin	0.0003357792	701
bin	0.0003366336	656
bin	0.000337488	684
bin	0.0003383424	687
bin	0.0003391968	686
bin	0.0003400512	683
bin	0.0003409056	679
bin	0.00034176	713
bin	0.0003426144	699
bin	0.0003434688	662
bin	0.0003443232	619
bin	0.0003451776	664
bin	0.000346032	631
bin	0.0003468864	608
bin	0.0003477408	646
bin	0.0003485952	645
bin	0.0003494496	608
bin	0.000350304	609
bin	0.0003511584	622
bin	0.0003520128	609
bin	0.0003528672	645
bin	0.0003537216	630
bin	0.000354576	675
bin	0.0003554304	628
bin	0.0003562848	628
bin	0.0003571392	633
bin	0.0003579936	627
bin	0.000358848	634
bin	0.0003597024	608
bin	0.0003605568	629
bin	0.0003614112	630
bin	0.0003622656	640
bin	0.00036312	650
bin	0.0003639744	682
bin	0.0003648288	663
bin	0.0003656832	668
bin	0.0003665376	661
bin	0.000367392	662
bin	0.0003682464	689
bin	0.0003691008	697
bin	0.0003699552	663
bin	0.0003708096	697
bin	0.000371664	744
bin	0.0003725184	739
bin	0.0003733728	683
bin	0.0003742272	715
bin	0.0003750816	660
bin	0.000375936	647
bin	0.0003767904	614
bin	0.0003776448	593
bin	0.0003784992	634
bin	0.0003793536	611
bin	0.000380208	633
bin	0.0003810624	606
bin	0.0003819168	603
bin	0.0003827712	624
bin	0.0003836256	644
bin	0.00038448	580
bin	0.0003853344	602
bin	0.0003861888	575
bin	0.0003870432	598
bin	0.0003878976	624
bin	0.000388752	609
bin	0.0003896064	615
bin	0.0003904608	625
bin	0.0003913152	595
bin	0.0003921696	644
bin	0.000393024	627
bin	0.0003938784	633
bin	0.0003947328	631
bin	0.0003955872	670
bin	0.0003964416	657
bin	0.000397296	646
bin	0.0003981504	701
bin	0.0003990048	688
bin	0.0003998592	672
bin	0.0004007136	706
bin	0.000401568	714
bin	0.0004024224	745
bin	0.0004032768	693
bin	0.0004041312	723
bin	0.0004049856	697
bin	0.00040584	756
bin	0.0004066944	716
bin	0.0004075488	757
bin	0.0004084032	703
bin	0.0004092576	641
bin	0.000410112	649
bin	0.0004109664	622
bin	0.0004118208	632
bin	0.0004126752	669
bin	0.0004135296	672
bin	0.000414384	631
bin	0.0004152384	609
bin	0.0004160928	656
bin	0.0004169472	671
bin	0.0004178016	728
bin	0.000418656	649
bin	0.0004195104	664
bin	0.0004203648	679
bin	0.0004212192	659
bin	0.0004220736	673
bin	0.000422928	689
bin	0.0004237824	689
bin	0.0004246368	693
bin	0.0004254912	699
bin	0.0004263456	709
bin	0.0004272	4915983
