version 2
run Transposition-79-20120710-19:27:06-28043
attr alg 3
attr buf 8
attr configname Transposition
attr datetime 20120710-19:27:06
attr delta 1
attr experiment Transposition
attr ext false
attr inifile altro.ini
attr iterationvars "$buf=8, $ext=false, $ofedge=2, $delta=1, $alg=3"
attr iterationvars2 "$buf=8, $ext=false, $ofedge=2, $delta=1, $alg=3, $repetition=0"
attr measurement "$buf=8, $ext=false, $ofedge=2, $delta=1, $alg=3"
attr network Torus3d_bub
attr ofedge 2
attr processid 28043
attr repetition 0
attr replication #0
attr resultdir altro-results
attr runnumber 79
attr seedset 79

scalar . 	alg 	3
scalar . 	buf 	8
scalar . 	delta 	1
scalar . 	ofedge 	2
scalar Torus3d_bub.timer 	#endTime 	0.004328088327093
scalar Torus3d_bub.timer 	#totalHops 	86509974
scalar Torus3d_bub.timer 	#totalPacks 	6291456
scalar Torus3d_bub.timer 	#totalDerouted 	1988415
scalar Torus3d_bub.timer 	#totalOutFlanked 	1206770
scalar Torus3d_bub.timer 	#totalCQRed 	781645
scalar Torus3d_bub.timer 	#LB 	0.000786432
scalar Torus3d_bub.timer 	#ratio 	0.18170423997059
statistic Torus3d_bub.timer 	"Hop Times"
field count 6193152
field mean 0.00011310212921596
field stddev 7.1077446532187e-05
field sum 700.45867775808
field sqrsum 0.11051118782523
field min 3.78296296e-07
field max 0.0007042516
bin	-INF	0
bin	0	0
bin	7.12e-08	0
bin	1.424e-07	0
bin	2.136e-07	0
bin	2.848e-07	0
bin	3.56e-07	245
bin	4.272e-07	929
bin	4.984e-07	1561
bin	5.696e-07	2366
bin	6.408e-07	3216
bin	7.12e-07	3943
bin	7.832e-07	4705
bin	8.544e-07	5616
bin	9.256e-07	6351
bin	9.968e-07	7177
bin	1.068e-06	7811
bin	1.1392e-06	9017
bin	1.2104e-06	9932
bin	1.2816e-06	10927
bin	1.3528e-06	12185
bin	1.424e-06	13208
bin	1.4952e-06	14344
bin	1.5664e-06	15610
bin	1.6376e-06	16241
bin	1.7088e-06	16624
bin	1.78e-06	17119
bin	1.8512e-06	17255
bin	1.9224e-06	17425
bin	1.9936e-06	17150
bin	2.0648e-06	16853
bin	2.136e-06	16410
bin	2.2072e-06	15936
bin	2.2784e-06	15676
bin	2.3496e-06	15039
bin	2.4208e-06	14481
bin	2.492e-06	14020
bin	2.5632e-06	13634
bin	2.6344e-06	12872
bin	2.7056e-06	12414
bin	2.7768e-06	11838
bin	2.848e-06	11562
bin	2.9192e-06	11064
bin	2.9904e-06	10756
bin	3.0616e-06	10423
bin	3.1328e-06	9761
bin	3.204e-06	9332
bin	3.2752e-06	8877
bin	3.3464e-06	8479
bin	3.4176e-06	8097
bin	3.4888e-06	7629
bin	3.56e-06	7416
bin	3.6312e-06	7044
bin	3.7024e-06	6760
bin	3.7736e-06	6373
bin	3.8448e-06	6157
bin	3.916e-06	5938
bin	3.9872e-06	5685
bin	4.0584e-06	5539
bin	4.1296e-06	5487
bin	4.2008e-06	5356
bin	4.272e-06	5040
bin	4.3432e-06	4936
bin	4.4144e-06	4898
bin	4.4856e-06	4769
bin	4.5568e-06	4724
bin	4.628e-06	4572
bin	4.6992e-06	4517
bin	4.7704e-06	4298
bin	4.8416e-06	4339
bin	4.9128e-06	4227
bin	4.984e-06	4136
bin	5.0552e-06	3943
bin	5.1264e-06	3939
bin	5.1976e-06	3873
bin	5.2688e-06	3797
bin	5.34e-06	3886
bin	5.4112e-06	3658
bin	5.4824e-06	3762
bin	5.5536e-06	3562
bin	5.6248e-06	3598
bin	5.696e-06	3533
bin	5.7672e-06	3437
bin	5.8384e-06	3405
bin	5.9096e-06	3291
bin	5.9808e-06	3154
bin	6.052e-06	3278
bin	6.1232e-06	3082
bin	6.1944e-06	2923
bin	6.2656e-06	2896
bin	6.3368e-06	2862
bin	6.408e-06	2805
bin	6.4792e-06	2810
bin	6.5504e-06	2619
bin	6.6216e-06	2549
bin	6.6928e-06	2604
bin	6.764e-06	2476
bin	6.8352e-06	2528
bin	6.9064e-06	2429
bin	6.9776e-06	2394
bin	7.0488e-06	2390
bin	7.12e-06	2314
bin	7.1912e-06	2282
bin	7.2624e-06	2401
bin	7.3336e-06	2283
bin	7.4048e-06	2352
bin	7.476e-06	2327
bin	7.5472e-06	2258
bin	7.6184e-06	2299
bin	7.6896e-06	2396
bin	7.7608e-06	2336
bin	7.832e-06	2358
bin	7.9032e-06	2350
bin	7.9744e-06	2222
bin	8.0456e-06	2285
bin	8.1168e-06	2216
bin	8.188e-06	2165
bin	8.2592e-06	2156
bin	8.3304e-06	2147
bin	8.4016e-06	2107
bin	8.4728e-06	2081
bin	8.544e-06	1999
bin	8.6152e-06	1990
bin	8.6864e-06	1932
bin	8.7576e-06	1988
bin	8.8288e-06	1898
bin	8.9e-06	2020
bin	8.9712e-06	1909
bin	9.0424e-06	1987
bin	9.1136e-06	2017
bin	9.1848e-06	2000
bin	9.256e-06	1950
bin	9.3272e-06	1976
bin	9.3984e-06	2019
bin	9.4696e-06	2036
bin	9.5408e-06	2046
bin	9.612e-06	1993
bin	9.6832e-06	1902
bin	9.7544e-06	1918
bin	9.8256e-06	1919
bin	9.8968e-06	1912
bin	9.968e-06	1959
bin	1.00392e-05	1931
bin	1.01104e-05	1910
bin	1.01816e-05	1863
bin	1.02528e-05	1820
bin	1.0324e-05	1814
bin	1.03952e-05	1805
bin	1.04664e-05	1817
bin	1.05376e-05	1844
bin	1.06088e-05	1811
bin	1.068e-05	1846
bin	1.07512e-05	1772
bin	1.08224e-05	1825
bin	1.08936e-05	1744
bin	1.09648e-05	1787
bin	1.1036e-05	1689
bin	1.11072e-05	1725
bin	1.11784e-05	1718
bin	1.12496e-05	1717
bin	1.13208e-05	1681
bin	1.1392e-05	1638
bin	1.14632e-05	1650
bin	1.15344e-05	1693
bin	1.16056e-05	1663
bin	1.16768e-05	1653
bin	1.1748e-05	1646
bin	1.18192e-05	1624
bin	1.18904e-05	1602
bin	1.19616e-05	1612
bin	1.20328e-05	1564
bin	1.2104e-05	1599
bin	1.21752e-05	1621
bin	1.22464e-05	1597
bin	1.23176e-05	1530
bin	1.23888e-05	1581
bin	1.246e-05	1601
bin	1.25312e-05	1532
bin	1.26024e-05	1465
bin	1.26736e-05	1519
bin	1.27448e-05	1471
bin	1.2816e-05	1505
bin	1.28872e-05	1536
bin	1.29584e-05	1486
bin	1.30296e-05	1456
bin	1.31008e-05	1512
bin	1.3172e-05	1472
bin	1.32432e-05	1412
bin	1.33144e-05	1450
bin	1.33856e-05	1463
bin	1.34568e-05	1441
bin	1.3528e-05	1450
bin	1.35992e-05	1410
bin	1.36704e-05	1414
bin	1.37416e-05	1415
bin	1.38128e-05	1371
bin	1.3884e-05	1388
bin	1.39552e-05	1338
bin	1.40264e-05	1379
bin	1.40976e-05	1411
bin	1.41688e-05	1330
bin	1.424e-05	1306
bin	1.43112e-05	1317
bin	1.43824e-05	1399
bin	1.44536e-05	1335
bin	1.45248e-05	1311
bin	1.4596e-05	1315
bin	1.46672e-05	1359
bin	1.47384e-05	1334
bin	1.48096e-05	1380
bin	1.48808e-05	1377
bin	1.4952e-05	1393
bin	1.50232e-05	1416
bin	1.50944e-05	1458
bin	1.51656e-05	1424
bin	1.52368e-05	1423
bin	1.5308e-05	1456
bin	1.53792e-05	1369
bin	1.54504e-05	1415
bin	1.55216e-05	1410
bin	1.55928e-05	1406
bin	1.5664e-05	1406
bin	1.57352e-05	1369
bin	1.58064e-05	1365
bin	1.58776e-05	1353
bin	1.59488e-05	1364
bin	1.602e-05	1280
bin	1.60912e-05	1274
bin	1.61624e-05	1281
bin	1.62336e-05	1298
bin	1.63048e-05	1233
bin	1.6376e-05	1266
bin	1.64472e-05	1241
bin	1.65184e-05	1299
bin	1.65896e-05	1329
bin	1.66608e-05	1296
bin	1.6732e-05	1310
bin	1.68032e-05	1286
bin	1.68744e-05	1338
bin	1.69456e-05	1331
bin	1.70168e-05	1264
bin	1.7088e-05	1310
bin	1.71592e-05	1282
bin	1.72304e-05	1308
bin	1.73016e-05	1271
bin	1.73728e-05	1249
bin	1.7444e-05	1304
bin	1.75152e-05	1233
bin	1.75864e-05	1239
bin	1.76576e-05	1207
bin	1.77288e-05	1145
bin	1.78e-05	1218
bin	1.78712e-05	1215
bin	1.79424e-05	1236
bin	1.80136e-05	1255
bin	1.80848e-05	1231
bin	1.8156e-05	1224
bin	1.82272e-05	1275
bin	1.82984e-05	1253
bin	1.83696e-05	1219
bin	1.84408e-05	1157
bin	1.8512e-05	1091
bin	1.85832e-05	1146
bin	1.86544e-05	1132
bin	1.87256e-05	1217
bin	1.87968e-05	1139
bin	1.8868e-05	1126
bin	1.89392e-05	1128
bin	1.90104e-05	1078
bin	1.90816e-05	1080
bin	1.91528e-05	1097
bin	1.9224e-05	1142
bin	1.92952e-05	1100
bin	1.93664e-05	1097
bin	1.94376e-05	1133
bin	1.95088e-05	1107
bin	1.958e-05	1113
bin	1.96512e-05	1095
bin	1.97224e-05	1205
bin	1.97936e-05	1145
bin	1.98648e-05	1165
bin	1.9936e-05	1147
bin	2.00072e-05	1194
bin	2.00784e-05	1153
bin	2.01496e-05	1184
bin	2.02208e-05	1176
bin	2.0292e-05	1202
bin	2.03632e-05	1187
bin	2.04344e-05	1159
bin	2.05056e-05	1153
bin	2.05768e-05	1229
bin	2.0648e-05	1185
bin	2.07192e-05	1167
bin	2.07904e-05	1199
bin	2.08616e-05	1137
bin	2.09328e-05	1118
bin	2.1004e-05	1158
bin	2.10752e-05	1101
bin	2.11464e-05	1097
bin	2.12176e-05	1107
bin	2.12888e-05	1068
bin	2.136e-05	1094
bin	2.14312e-05	1032
bin	2.15024e-05	1092
bin	2.15736e-05	1029
bin	2.16448e-05	1064
bin	2.1716e-05	1041
bin	2.17872e-05	1004
bin	2.18584e-05	1018
bin	2.19296e-05	999
bin	2.20008e-05	1063
bin	2.2072e-05	1035
bin	2.21432e-05	1104
bin	2.22144e-05	1076
bin	2.22856e-05	1072
bin	2.23568e-05	1080
bin	2.2428e-05	1059
bin	2.24992e-05	1034
bin	2.25704e-05	1115
bin	2.26416e-05	1071
bin	2.27128e-05	1052
bin	2.2784e-05	1028
bin	2.28552e-05	1109
bin	2.29264e-05	1046
bin	2.29976e-05	1032
bin	2.30688e-05	1069
bin	2.314e-05	1093
bin	2.32112e-05	1048
bin	2.32824e-05	1051
bin	2.33536e-05	1060
bin	2.34248e-05	1029
bin	2.3496e-05	1060
bin	2.35672e-05	1035
bin	2.36384e-05	1016
bin	2.37096e-05	994
bin	2.37808e-05	1018
bin	2.3852e-05	970
bin	2.39232e-05	1023
bin	2.39944e-05	1020
bin	2.40656e-05	1055
bin	2.41368e-05	1006
bin	2.4208e-05	995
bin	2.42792e-05	978
bin	2.43504e-05	1016
bin	2.44216e-05	1052
bin	2.44928e-05	1016
bin	2.4564e-05	1105
bin	2.46352e-05	1084
bin	2.47064e-05	1098
bin	2.47776e-05	1086
bin	2.48488e-05	1046
bin	2.492e-05	1000
bin	2.49912e-05	1039
bin	2.50624e-05	1069
bin	2.51336e-05	979
bin	2.52048e-05	973
bin	2.5276e-05	982
bin	2.53472e-05	938
bin	2.54184e-05	907
bin	2.54896e-05	886
bin	2.55608e-05	846
bin	2.5632e-05	922
bin	2.57032e-05	906
bin	2.57744e-05	893
bin	2.58456e-05	870
bin	2.59168e-05	941
bin	2.5988e-05	840
bin	2.60592e-05	925
bin	2.61304e-05	901
bin	2.62016e-05	873
bin	2.62728e-05	891
bin	2.6344e-05	947
bin	2.64152e-05	877
bin	2.64864e-05	892
bin	2.65576e-05	860
bin	2.66288e-05	868
bin	2.67e-05	906
bin	2.67712e-05	875
bin	2.68424e-05	941
bin	2.69136e-05	915
bin	2.69848e-05	931
bin	2.7056e-05	922
bin	2.71272e-05	912
bin	2.71984e-05	903
bin	2.72696e-05	882
bin	2.73408e-05	937
bin	2.7412e-05	938
bin	2.74832e-05	921
bin	2.75544e-05	943
bin	2.76256e-05	916
bin	2.76968e-05	898
bin	2.7768e-05	940
bin	2.78392e-05	886
bin	2.79104e-05	923
bin	2.79816e-05	914
bin	2.80528e-05	921
bin	2.8124e-05	879
bin	2.81952e-05	904
bin	2.82664e-05	942
bin	2.83376e-05	916
bin	2.84088e-05	904
bin	2.848e-05	903
bin	2.85512e-05	866
bin	2.86224e-05	872
bin	2.86936e-05	909
bin	2.87648e-05	929
bin	2.8836e-05	901
bin	2.89072e-05	937
bin	2.89784e-05	858
bin	2.90496e-05	914
bin	2.91208e-05	895
bin	2.9192e-05	895
bin	2.92632e-05	979
bin	2.93344e-05	984
bin	2.94056e-05	938
bin	2.94768e-05	924
bin	2.9548e-05	944
bin	2.96192e-05	920
bin	2.96904e-05	942
bin	2.97616e-05	925
bin	2.98328e-05	884
bin	2.9904e-05	920
bin	2.99752e-05	944
bin	3.00464e-05	923
bin	3.01176e-05	930
bin	3.01888e-05	934
bin	3.026e-05	949
bin	3.03312e-05	882
bin	3.04024e-05	848
bin	3.04736e-05	900
bin	3.05448e-05	866
bin	3.0616e-05	901
bin	3.06872e-05	855
bin	3.07584e-05	838
bin	3.08296e-05	834
bin	3.09008e-05	902
bin	3.0972e-05	899
bin	3.10432e-05	878
bin	3.11144e-05	872
bin	3.11856e-05	872
bin	3.12568e-05	927
bin	3.1328e-05	886
bin	3.13992e-05	851
bin	3.14704e-05	872
bin	3.15416e-05	842
bin	3.16128e-05	852
bin	3.1684e-05	854
bin	3.17552e-05	839
bin	3.18264e-05	871
bin	3.18976e-05	920
bin	3.19688e-05	888
bin	3.204e-05	822
bin	3.21112e-05	892
bin	3.21824e-05	854
bin	3.22536e-05	880
bin	3.23248e-05	880
bin	3.2396e-05	860
bin	3.24672e-05	854
bin	3.25384e-05	901
bin	3.26096e-05	895
bin	3.26808e-05	876
bin	3.2752e-05	895
bin	3.28232e-05	879
bin	3.28944e-05	940
bin	3.29656e-05	816
bin	3.30368e-05	877
bin	3.3108e-05	865
bin	3.31792e-05	805
bin	3.32504e-05	885
bin	3.33216e-05	866
bin	3.33928e-05	869
bin	3.3464e-05	891
bin	3.35352e-05	914
bin	3.36064e-05	889
bin	3.36776e-05	895
bin	3.37488e-05	931
bin	3.382e-05	930
bin	3.38912e-05	954
bin	3.39624e-05	930
bin	3.40336e-05	947
bin	3.41048e-05	923
bin	3.4176e-05	968
bin	3.42472e-05	976
bin	3.43184e-05	975
bin	3.43896e-05	932
bin	3.44608e-05	867
bin	3.4532e-05	840
bin	3.46032e-05	875
bin	3.46744e-05	917
bin	3.47456e-05	880
bin	3.48168e-05	845
bin	3.4888e-05	936
bin	3.49592e-05	923
bin	3.50304e-05	914
bin	3.51016e-05	929
bin	3.51728e-05	874
bin	3.5244e-05	932
bin	3.53152e-05	870
bin	3.53864e-05	856
bin	3.54576e-05	887
bin	3.55288e-05	854
bin	3.56e-05	5009951
statistic Torus3d_bub.timer 	"Life Times"
field count 6291456
field mean 0.001578969065101
field stddev 0.0010532697985419
field sum 9934.0143984443
field sqrsum 22.665098590331
field min 1.64e-07
field max 0.004268161327093
bin	-INF	0
bin	0	6592
bin	8.544e-07	8192
bin	1.7088e-06	8723
bin	2.5632e-06	9218
bin	3.4176e-06	9882
bin	4.272e-06	10699
bin	5.1264e-06	11710
bin	5.9808e-06	12809
bin	6.8352e-06	13914
bin	7.6896e-06	14989
bin	8.544e-06	16112
bin	9.3984e-06	17453
bin	1.02528e-05	11925
bin	1.11072e-05	11261
bin	1.19616e-05	12048
bin	1.2816e-05	12568
bin	1.36704e-05	13157
bin	1.45248e-05	13614
bin	1.53792e-05	14423
bin	1.62336e-05	14764
bin	1.7088e-05	15172
bin	1.79424e-05	15342
bin	1.87968e-05	15450
bin	1.96512e-05	15636
bin	2.05056e-05	16392
bin	2.136e-05	16427
bin	2.22144e-05	16690
bin	2.30688e-05	17011
bin	2.39232e-05	17392
bin	2.47776e-05	17946
bin	2.5632e-05	18265
bin	2.64864e-05	17934
bin	2.73408e-05	17621
bin	2.81952e-05	16933
bin	2.90496e-05	16136
bin	2.9904e-05	15168
bin	3.07584e-05	14364
bin	3.16128e-05	13118
bin	3.24672e-05	12351
bin	3.33216e-05	11106
bin	3.4176e-05	10011
bin	3.50304e-05	9166
bin	3.58848e-05	8248
bin	3.67392e-05	7833
bin	3.75936e-05	7381
bin	3.8448e-05	6848
bin	3.93024e-05	6468
bin	4.01568e-05	6282
bin	4.10112e-05	6061
bin	4.18656e-05	5837
bin	4.272e-05	5705
bin	4.35744e-05	5746
bin	4.44288e-05	5703
bin	4.52832e-05	5656
bin	4.61376e-05	5685
bin	4.6992e-05	5603
bin	4.78464e-05	5644
bin	4.87008e-05	5506
bin	4.95552e-05	5598
bin	5.04096e-05	5483
bin	5.1264e-05	5451
bin	5.21184e-05	5201
bin	5.29728e-05	5065
bin	5.38272e-05	4676
bin	5.46816e-05	4740
bin	5.5536e-05	4571
bin	5.63904e-05	4293
bin	5.72448e-05	4281
bin	5.80992e-05	4047
bin	5.89536e-05	3892
bin	5.9808e-05	3575
bin	6.06624e-05	3394
bin	6.15168e-05	3317
bin	6.23712e-05	3187
bin	6.32256e-05	3112
bin	6.408e-05	2935
bin	6.49344e-05	2927
bin	6.57888e-05	2929
bin	6.66432e-05	2944
bin	6.74976e-05	2956
bin	6.8352e-05	2935
bin	6.92064e-05	3044
bin	7.00608e-05	3006
bin	7.09152e-05	2988
bin	7.17696e-05	2985
bin	7.2624e-05	3014
bin	7.34784e-05	3027
bin	7.43328e-05	3163
bin	7.51872e-05	3129
bin	7.60416e-05	3131
bin	7.6896e-05	3162
bin	7.77504e-05	3070
bin	7.86048e-05	3025
bin	7.94592e-05	2971
bin	8.03136e-05	2832
bin	8.1168e-05	2723
bin	8.20224e-05	2630
bin	8.28768e-05	2437
bin	8.37312e-05	2372
bin	8.45856e-05	2401
bin	8.544e-05	2239
bin	8.62944e-05	2156
bin	8.71488e-05	2089
bin	8.80032e-05	2031
bin	8.88576e-05	2090
bin	8.9712e-05	2068
bin	9.05664e-05	2073
bin	9.14208e-05	2053
bin	9.22752e-05	2036
bin	9.31296e-05	2078
bin	9.3984e-05	2093
bin	9.48384e-05	2140
bin	9.56928e-05	2113
bin	9.65472e-05	2176
bin	9.74016e-05	2274
bin	9.8256e-05	2275
bin	9.91104e-05	2175
bin	9.99648e-05	2334
bin	0.0001008192	2269
bin	0.0001016736	2316
bin	0.000102528	2320
bin	0.0001033824	2266
bin	0.0001042368	2145
bin	0.0001050912	2016
bin	0.0001059456	2008
bin	0.0001068	1877
bin	0.0001076544	1860
bin	0.0001085088	1895
bin	0.0001093632	1828
bin	0.0001102176	1723
bin	0.000111072	1684
bin	0.0001119264	1684
bin	0.0001127808	1712
bin	0.0001136352	1630
bin	0.0001144896	1649
bin	0.000115344	1608
bin	0.0001161984	1728
bin	0.0001170528	1725
bin	0.0001179072	1809
bin	0.0001187616	1847
bin	0.000119616	1849
bin	0.0001204704	1843
bin	0.0001213248	1825
bin	0.0001221792	1865
bin	0.0001230336	1905
bin	0.000123888	1908
bin	0.0001247424	2021
bin	0.0001255968	1929
bin	0.0001264512	1936
bin	0.0001273056	1816
bin	0.00012816	1813
bin	0.0001290144	1852
bin	0.0001298688	1772
bin	0.0001307232	1773
bin	0.0001315776	1779
bin	0.000132432	1704
bin	0.0001332864	1693
bin	0.0001341408	1651
bin	0.0001349952	1627
bin	0.0001358496	1581
bin	0.000136704	1580
bin	0.0001375584	1595
bin	0.0001384128	1551
bin	0.0001392672	1544
bin	0.0001401216	1600
bin	0.000140976	1542
bin	0.0001418304	1598
bin	0.0001426848	1626
bin	0.0001435392	1672
bin	0.0001443936	1689
bin	0.000145248	1602
bin	0.0001461024	1667
bin	0.0001469568	1794
bin	0.0001478112	1713
bin	0.0001486656	1766
bin	0.00014952	1853
bin	0.0001503744	1812
bin	0.0001512288	1745
bin	0.0001520832	1707
bin	0.0001529376	1792
bin	0.000153792	1722
bin	0.0001546464	1704
bin	0.0001555008	1595
bin	0.0001563552	1494
bin	0.0001572096	1453
bin	0.000158064	1477
bin	0.0001589184	1430
bin	0.0001597728	1436
bin	0.0001606272	1450
bin	0.0001614816	1418
bin	0.000162336	1421
bin	0.0001631904	1420
bin	0.0001640448	1403
bin	0.0001648992	1376
bin	0.0001657536	1307
bin	0.000166608	1362
bin	0.0001674624	1386
bin	0.0001683168	1413
bin	0.0001691712	1492
bin	0.0001700256	1561
bin	0.00017088	1455
bin	0.0001717344	1503
bin	0.0001725888	1496
bin	0.0001734432	1529
bin	0.0001742976	1535
bin	0.000175152	1542
bin	0.0001760064	1536
bin	0.0001768608	1408
bin	0.0001777152	1410
bin	0.0001785696	1415
bin	0.000179424	1400
bin	0.0001802784	1411
bin	0.0001811328	1421
bin	0.0001819872	1358
bin	0.0001828416	1354
bin	0.000183696	1355
bin	0.0001845504	1342
bin	0.0001854048	1329
bin	0.0001862592	1308
bin	0.0001871136	1301
bin	0.000187968	1267
bin	0.0001888224	1303
bin	0.0001896768	1262
bin	0.0001905312	1280
bin	0.0001913856	1339
bin	0.00019224	1326
bin	0.0001930944	1287
bin	0.0001939488	1354
bin	0.0001948032	1335
bin	0.0001956576	1329
bin	0.000196512	1377
bin	0.0001973664	1414
bin	0.0001982208	1396
bin	0.0001990752	1422
bin	0.0001999296	1346
bin	0.000200784	1394
bin	0.0002016384	1330
bin	0.0002024928	1295
bin	0.0002033472	1331
bin	0.0002042016	1286
bin	0.000205056	1316
bin	0.0002059104	1321
bin	0.0002067648	1310
bin	0.0002076192	1205
bin	0.0002084736	1193
bin	0.000209328	1196
bin	0.0002101824	1162
bin	0.0002110368	1140
bin	0.0002118912	1119
bin	0.0002127456	1088
bin	0.0002136	1113
bin	0.0002144544	1073
bin	0.0002153088	1096
bin	0.0002161632	1161
bin	0.0002170176	1126
bin	0.000217872	1077
bin	0.0002187264	1188
bin	0.0002195808	1161
bin	0.0002204352	1184
bin	0.0002212896	1153
bin	0.000222144	1228
bin	0.0002229984	1213
bin	0.0002238528	1146
bin	0.0002247072	1219
bin	0.0002255616	1170
bin	0.000226416	1237
bin	0.0002272704	1191
bin	0.0002281248	1168
bin	0.0002289792	1183
bin	0.0002298336	1084
bin	0.000230688	1104
bin	0.0002315424	1091
bin	0.0002323968	1089
bin	0.0002332512	1045
bin	0.0002341056	1055
bin	0.00023496	1009
bin	0.0002358144	960
bin	0.0002366688	958
bin	0.0002375232	973
bin	0.0002383776	941
bin	0.000239232	981
bin	0.0002400864	990
bin	0.0002409408	1039
bin	0.0002417952	987
bin	0.0002426496	1010
bin	0.000243504	1065
bin	0.0002443584	1067
bin	0.0002452128	1012
bin	0.0002460672	1089
bin	0.0002469216	1074
bin	0.000247776	1065
bin	0.0002486304	1113
bin	0.0002494848	1109
bin	0.0002503392	1132
bin	0.0002511936	1024
bin	0.000252048	949
bin	0.0002529024	1001
bin	0.0002537568	965
bin	0.0002546112	976
bin	0.0002554656	914
bin	0.00025632	883
bin	0.0002571744	844
bin	0.0002580288	887
bin	0.0002588832	852
bin	0.0002597376	801
bin	0.000260592	870
bin	0.0002614464	810
bin	0.0002623008	846
bin	0.0002631552	849
bin	0.0002640096	849
bin	0.000264864	863
bin	0.0002657184	924
bin	0.0002665728	931
bin	0.0002674272	929
bin	0.0002682816	932
bin	0.000269136	930
bin	0.0002699904	977
bin	0.0002708448	1028
bin	0.0002716992	1031
bin	0.0002725536	1007
bin	0.000273408	1080
bin	0.0002742624	1002
bin	0.0002751168	1027
bin	0.0002759712	1027
bin	0.0002768256	1049
bin	0.00027768	1031
bin	0.0002785344	995
bin	0.0002793888	983
bin	0.0002802432	951
bin	0.0002810976	956
bin	0.000281952	936
bin	0.0002828064	918
bin	0.0002836608	926
bin	0.0002845152	830
bin	0.0002853696	903
bin	0.000286224	879
bin	0.0002870784	864
bin	0.0002879328	891
bin	0.0002887872	835
bin	0.0002896416	889
bin	0.000290496	882
bin	0.0002913504	901
bin	0.0002922048	908
bin	0.0002930592	942
bin	0.0002939136	961
bin	0.000294768	983
bin	0.0002956224	983
bin	0.0002964768	965
bin	0.0002973312	995
bin	0.0002981856	994
bin	0.00029904	924
bin	0.0002998944	981
bin	0.0003007488	985
bin	0.0003016032	970
bin	0.0003024576	964
bin	0.000303312	904
bin	0.0003041664	875
bin	0.0003050208	860
bin	0.0003058752	861
bin	0.0003067296	838
bin	0.000307584	820
bin	0.0003084384	899
bin	0.0003092928	858
bin	0.0003101472	891
bin	0.0003110016	836
bin	0.000311856	879
bin	0.0003127104	883
bin	0.0003135648	881
bin	0.0003144192	905
bin	0.0003152736	877
bin	0.000316128	953
bin	0.0003169824	1009
bin	0.0003178368	984
bin	0.0003186912	1016
bin	0.0003195456	987
bin	0.0003204	1026
bin	0.0003212544	951
bin	0.0003221088	1024
bin	0.0003229632	996
bin	0.0003238176	968
bin	0.000324672	959
bin	0.0003255264	946
bin	0.0003263808	944
bin	0.0003272352	943
bin	0.0003280896	939
bin	0.000328944	954
bin	0.0003297984	929
bin	0.0003306528	872
bin	0.0003315072	916
bin	0.0003323616	896
bin	0.000333216	871
bin	0.0003340704	868
bin	0.0003349248	891
bin	0.0003357792	931
bin	0.0003366336	913
bin	0.000337488	880
bin	0.0003383424	920
bin	0.0003391968	904
bin	0.0003400512	863
bin	0.0003409056	900
bin	0.00034176	926
bin	0.0003426144	888
bin	0.0003434688	892
bin	0.0003443232	854
bin	0.0003451776	886
bin	0.000346032	854
bin	0.0003468864	843
bin	0.0003477408	894
bin	0.0003485952	882
bin	0.0003494496	905
bin	0.000350304	910
bin	0.0003511584	970
bin	0.0003520128	897
bin	0.0003528672	852
bin	0.0003537216	908
bin	0.000354576	864
bin	0.0003554304	839
bin	0.0003562848	832
bin	0.0003571392	834
bin	0.0003579936	826
bin	0.000358848	853
bin	0.0003597024	843
bin	0.0003605568	829
bin	0.0003614112	860
bin	0.0003622656	829
bin	0.00036312	843
bin	0.0003639744	899
bin	0.0003648288	814
bin	0.0003656832	874
bin	0.0003665376	870
bin	0.000367392	901
bin	0.0003682464	894
bin	0.0003691008	904
bin	0.0003699552	912
bin	0.0003708096	936
bin	0.000371664	901
bin	0.0003725184	899
bin	0.0003733728	874
bin	0.0003742272	874
bin	0.0003750816	876
bin	0.000375936	881
bin	0.0003767904	837
bin	0.0003776448	865
bin	0.0003784992	801
bin	0.0003793536	797
bin	0.000380208	771
bin	0.0003810624	802
bin	0.0003819168	793
bin	0.0003827712	855
bin	0.0003836256	785
bin	0.00038448	810
bin	0.0003853344	799
bin	0.0003861888	819
bin	0.0003870432	837
bin	0.0003878976	827
bin	0.000388752	827
bin	0.0003896064	839
bin	0.0003904608	846
bin	0.0003913152	869
bin	0.0003921696	906
bin	0.000393024	886
bin	0.0003938784	862
bin	0.0003947328	873
bin	0.0003955872	867
bin	0.0003964416	853
bin	0.000397296	879
bin	0.0003981504	865
bin	0.0003990048	889
bin	0.0003998592	851
bin	0.0004007136	890
bin	0.000401568	842
bin	0.0004024224	832
bin	0.0004032768	831
bin	0.0004041312	847
bin	0.0004049856	796
bin	0.00040584	773
bin	0.0004066944	802
bin	0.0004075488	739
bin	0.0004084032	749
bin	0.0004092576	758
bin	0.000410112	842
bin	0.0004109664	805
bin	0.0004118208	796
bin	0.0004126752	820
bin	0.0004135296	794
bin	0.000414384	767
bin	0.0004152384	856
bin	0.0004160928	825
bin	0.0004169472	798
bin	0.0004178016	829
bin	0.000418656	840
bin	0.0004195104	884
bin	0.0004203648	869
bin	0.0004212192	874
bin	0.0004220736	859
bin	0.000422928	827
bin	0.0004237824	804
bin	0.0004246368	805
bin	0.0004254912	836
bin	0.0004263456	777
bin	0.0004272	4987485
