version 2
run Transposition-72-20120710-15:48:08-25656
attr alg 0
attr buf 8
attr configname Transposition
attr datetime 20120710-15:48:08
attr delta 0.8
attr experiment Transposition
attr ext false
attr inifile altro.ini
attr iterationvars "$buf=8, $ext=false, $ofedge=2, $delta=0.8, $alg=0"
attr iterationvars2 "$buf=8, $ext=false, $ofedge=2, $delta=0.8, $alg=0, $repetition=0"
attr measurement "$buf=8, $ext=false, $ofedge=2, $delta=0.8, $alg=0"
attr network Torus3d_bub
attr ofedge 2
attr processid 25656
attr repetition 0
attr replication #0
attr resultdir altro-results
attr runnumber 72
attr seedset 72

scalar . 	alg 	0
scalar . 	buf 	8
scalar . 	delta 	0.8
scalar . 	ofedge 	2
scalar Torus3d_bub.timer 	#endTime 	0.003793186999999
scalar Torus3d_bub.timer 	#totalHops 	75497472
scalar Torus3d_bub.timer 	#totalPacks 	6291456
scalar Torus3d_bub.timer 	#totalDerouted 	0
scalar Torus3d_bub.timer 	#totalOutFlanked 	0
scalar Torus3d_bub.timer 	#totalCQRed 	0
scalar Torus3d_bub.timer 	#LB 	0.000786432
scalar Torus3d_bub.timer 	#ratio 	0.20732750586781
statistic Torus3d_bub.timer 	"Hop Times"
field count 6193152
field mean 9.1323003809383e-05
field stddev 7.6124663480843e-05
field sum 565.57724368809
field sqrsum 0.087539302287164
field min 3.74222222e-07
field max 0.000742591
bin	-INF	0
bin	0	0
bin	7.12e-08	0
bin	1.424e-07	0
bin	2.136e-07	0
bin	2.848e-07	0
bin	3.56e-07	273
bin	4.272e-07	1192
bin	4.984e-07	2020
bin	5.696e-07	3201
bin	6.408e-07	4419
bin	7.12e-07	5482
bin	7.832e-07	6450
bin	8.544e-07	7065
bin	9.256e-07	8065
bin	9.968e-07	8699
bin	1.068e-06	9633
bin	1.1392e-06	10614
bin	1.2104e-06	11660
bin	1.2816e-06	12974
bin	1.3528e-06	14216
bin	1.424e-06	15630
bin	1.4952e-06	16929
bin	1.5664e-06	18142
bin	1.6376e-06	19118
bin	1.7088e-06	19980
bin	1.78e-06	20307
bin	1.8512e-06	21058
bin	1.9224e-06	21564
bin	1.9936e-06	21612
bin	2.0648e-06	21944
bin	2.136e-06	21746
bin	2.2072e-06	21210
bin	2.2784e-06	21080
bin	2.3496e-06	20701
bin	2.4208e-06	20313
bin	2.492e-06	19616
bin	2.5632e-06	19323
bin	2.6344e-06	18609
bin	2.7056e-06	18073
bin	2.7768e-06	17412
bin	2.848e-06	17012
bin	2.9192e-06	16682
bin	2.9904e-06	16156
bin	3.0616e-06	15794
bin	3.1328e-06	15080
bin	3.204e-06	14820
bin	3.2752e-06	14177
bin	3.3464e-06	13950
bin	3.4176e-06	13580
bin	3.4888e-06	12973
bin	3.56e-06	12740
bin	3.6312e-06	12244
bin	3.7024e-06	11808
bin	3.7736e-06	11545
bin	3.8448e-06	11175
bin	3.916e-06	10818
bin	3.9872e-06	10651
bin	4.0584e-06	10224
bin	4.1296e-06	10015
bin	4.2008e-06	9544
bin	4.272e-06	9480
bin	4.3432e-06	9239
bin	4.4144e-06	8974
bin	4.4856e-06	8812
bin	4.5568e-06	8580
bin	4.628e-06	8360
bin	4.6992e-06	8152
bin	4.7704e-06	7932
bin	4.8416e-06	7837
bin	4.9128e-06	7621
bin	4.984e-06	7816
bin	5.0552e-06	7400
bin	5.1264e-06	7290
bin	5.1976e-06	7209
bin	5.2688e-06	7009
bin	5.34e-06	6988
bin	5.4112e-06	6760
bin	5.4824e-06	6699
bin	5.5536e-06	6621
bin	5.6248e-06	6443
bin	5.696e-06	6523
bin	5.7672e-06	6192
bin	5.8384e-06	6411
bin	5.9096e-06	6146
bin	5.9808e-06	6256
bin	6.052e-06	6244
bin	6.1232e-06	6098
bin	6.1944e-06	6044
bin	6.2656e-06	5868
bin	6.3368e-06	5900
bin	6.408e-06	5782
bin	6.4792e-06	5550
bin	6.5504e-06	5621
bin	6.6216e-06	5537
bin	6.6928e-06	5446
bin	6.764e-06	5406
bin	6.8352e-06	5233
bin	6.9064e-06	5276
bin	6.9776e-06	5075
bin	7.0488e-06	5032
bin	7.12e-06	4862
bin	7.1912e-06	4900
bin	7.2624e-06	4882
bin	7.3336e-06	4784
bin	7.4048e-06	4868
bin	7.476e-06	4860
bin	7.5472e-06	4683
bin	7.6184e-06	4685
bin	7.6896e-06	4572
bin	7.7608e-06	4545
bin	7.832e-06	4499
bin	7.9032e-06	4372
bin	7.9744e-06	4327
bin	8.0456e-06	4283
bin	8.1168e-06	4253
bin	8.188e-06	4314
bin	8.2592e-06	4147
bin	8.3304e-06	4180
bin	8.4016e-06	4077
bin	8.4728e-06	4082
bin	8.544e-06	4039
bin	8.6152e-06	4111
bin	8.6864e-06	3997
bin	8.7576e-06	4012
bin	8.8288e-06	3958
bin	8.9e-06	3860
bin	8.9712e-06	3889
bin	9.0424e-06	3941
bin	9.1136e-06	3855
bin	9.1848e-06	3853
bin	9.256e-06	3799
bin	9.3272e-06	3733
bin	9.3984e-06	3779
bin	9.4696e-06	3773
bin	9.5408e-06	3885
bin	9.612e-06	3773
bin	9.6832e-06	3735
bin	9.7544e-06	3787
bin	9.8256e-06	3714
bin	9.8968e-06	3725
bin	9.968e-06	3644
bin	1.00392e-05	3643
bin	1.01104e-05	3684
bin	1.01816e-05	3557
bin	1.02528e-05	3485
bin	1.0324e-05	3494
bin	1.03952e-05	3481
bin	1.04664e-05	3384
bin	1.05376e-05	3382
bin	1.06088e-05	3430
bin	1.068e-05	3404
bin	1.07512e-05	3350
bin	1.08224e-05	3312
bin	1.08936e-05	3347
bin	1.09648e-05	3327
bin	1.1036e-05	3257
bin	1.11072e-05	3168
bin	1.11784e-05	3314
bin	1.12496e-05	3323
bin	1.13208e-05	3308
bin	1.1392e-05	3256
bin	1.14632e-05	3310
bin	1.15344e-05	3276
bin	1.16056e-05	3297
bin	1.16768e-05	3380
bin	1.1748e-05	3240
bin	1.18192e-05	3271
bin	1.18904e-05	3269
bin	1.19616e-05	3174
bin	1.20328e-05	3201
bin	1.2104e-05	3167
bin	1.21752e-05	3226
bin	1.22464e-05	3165
bin	1.23176e-05	3141
bin	1.23888e-05	3121
bin	1.246e-05	3059
bin	1.25312e-05	3142
bin	1.26024e-05	3052
bin	1.26736e-05	3154
bin	1.27448e-05	3029
bin	1.2816e-05	3128
bin	1.28872e-05	3025
bin	1.29584e-05	3005
bin	1.30296e-05	2995
bin	1.31008e-05	3031
bin	1.3172e-05	2986
bin	1.32432e-05	2992
bin	1.33144e-05	2963
bin	1.33856e-05	2953
bin	1.34568e-05	2789
bin	1.3528e-05	2851
bin	1.35992e-05	2819
bin	1.36704e-05	2804
bin	1.37416e-05	2771
bin	1.38128e-05	2809
bin	1.3884e-05	2768
bin	1.39552e-05	2711
bin	1.40264e-05	2669
bin	1.40976e-05	2648
bin	1.41688e-05	2668
bin	1.424e-05	2697
bin	1.43112e-05	2698
bin	1.43824e-05	2693
bin	1.44536e-05	2656
bin	1.45248e-05	2732
bin	1.4596e-05	2746
bin	1.46672e-05	2708
bin	1.47384e-05	2708
bin	1.48096e-05	2605
bin	1.48808e-05	2554
bin	1.4952e-05	2689
bin	1.50232e-05	2584
bin	1.50944e-05	2541
bin	1.51656e-05	2493
bin	1.52368e-05	2579
bin	1.5308e-05	2508
bin	1.53792e-05	2561
bin	1.54504e-05	2514
bin	1.55216e-05	2560
bin	1.55928e-05	2547
bin	1.5664e-05	2470
bin	1.57352e-05	2424
bin	1.58064e-05	2529
bin	1.58776e-05	2443
bin	1.59488e-05	2412
bin	1.602e-05	2448
bin	1.60912e-05	2440
bin	1.61624e-05	2334
bin	1.62336e-05	2393
bin	1.63048e-05	2356
bin	1.6376e-05	2270
bin	1.64472e-05	2320
bin	1.65184e-05	2290
bin	1.65896e-05	2313
bin	1.66608e-05	2267
bin	1.6732e-05	2342
bin	1.68032e-05	2312
bin	1.68744e-05	2289
bin	1.69456e-05	2294
bin	1.70168e-05	2133
bin	1.7088e-05	2169
bin	1.71592e-05	2185
bin	1.72304e-05	2157
bin	1.73016e-05	2137
bin	1.73728e-05	2199
bin	1.7444e-05	2178
bin	1.75152e-05	2169
bin	1.75864e-05	2127
bin	1.76576e-05	2223
bin	1.77288e-05	2123
bin	1.78e-05	2138
bin	1.78712e-05	2202
bin	1.79424e-05	2192
bin	1.80136e-05	2187
bin	1.80848e-05	2209
bin	1.8156e-05	2172
bin	1.82272e-05	2225
bin	1.82984e-05	2191
bin	1.83696e-05	2263
bin	1.84408e-05	2153
bin	1.8512e-05	2164
bin	1.85832e-05	2067
bin	1.86544e-05	2102
bin	1.87256e-05	2109
bin	1.87968e-05	2161
bin	1.8868e-05	2149
bin	1.89392e-05	2135
bin	1.90104e-05	2185
bin	1.90816e-05	2184
bin	1.91528e-05	2111
bin	1.9224e-05	2120
bin	1.92952e-05	2065
bin	1.93664e-05	2085
bin	1.94376e-05	2146
bin	1.95088e-05	2084
bin	1.958e-05	2152
bin	1.96512e-05	2112
bin	1.97224e-05	2066
bin	1.97936e-05	2102
bin	1.98648e-05	2099
bin	1.9936e-05	2051
bin	2.00072e-05	2017
bin	2.00784e-05	2029
bin	2.01496e-05	1971
bin	2.02208e-05	1890
bin	2.0292e-05	1878
bin	2.03632e-05	1945
bin	2.04344e-05	1929
bin	2.05056e-05	1922
bin	2.05768e-05	1896
bin	2.0648e-05	1935
bin	2.07192e-05	1963
bin	2.07904e-05	1941
bin	2.08616e-05	1943
bin	2.09328e-05	1978
bin	2.1004e-05	1974
bin	2.10752e-05	1884
bin	2.11464e-05	1875
bin	2.12176e-05	1890
bin	2.12888e-05	1829
bin	2.136e-05	1857
bin	2.14312e-05	1904
bin	2.15024e-05	1864
bin	2.15736e-05	1926
bin	2.16448e-05	1919
bin	2.1716e-05	1906
bin	2.17872e-05	1905
bin	2.18584e-05	1886
bin	2.19296e-05	1908
bin	2.20008e-05	1831
bin	2.2072e-05	1897
bin	2.21432e-05	1892
bin	2.22144e-05	1843
bin	2.22856e-05	1800
bin	2.23568e-05	1755
bin	2.2428e-05	1811
bin	2.24992e-05	1759
bin	2.25704e-05	1828
bin	2.26416e-05	1782
bin	2.27128e-05	1809
bin	2.2784e-05	1816
bin	2.28552e-05	1817
bin	2.29264e-05	1920
bin	2.29976e-05	1792
bin	2.30688e-05	1833
bin	2.314e-05	1784
bin	2.32112e-05	1857
bin	2.32824e-05	1862
bin	2.33536e-05	1840
bin	2.34248e-05	1840
bin	2.3496e-05	1814
bin	2.35672e-05	1836
bin	2.36384e-05	1905
bin	2.37096e-05	1869
bin	2.37808e-05	1810
bin	2.3852e-05	1805
bin	2.39232e-05	1826
bin	2.39944e-05	1805
bin	2.40656e-05	1814
bin	2.41368e-05	1733
bin	2.4208e-05	1732
bin	2.42792e-05	1753
bin	2.43504e-05	1754
bin	2.44216e-05	1744
bin	2.44928e-05	1716
bin	2.4564e-05	1756
bin	2.46352e-05	1754
bin	2.47064e-05	1790
bin	2.47776e-05	1717
bin	2.48488e-05	1757
bin	2.492e-05	1802
bin	2.49912e-05	1783
bin	2.50624e-05	1737
bin	2.51336e-05	1812
bin	2.52048e-05	1709
bin	2.5276e-05	1769
bin	2.53472e-05	1770
bin	2.54184e-05	1769
bin	2.54896e-05	1766
bin	2.55608e-05	1801
bin	2.5632e-05	1754
bin	2.57032e-05	1689
bin	2.57744e-05	1713
bin	2.58456e-05	1667
bin	2.59168e-05	1657
bin	2.5988e-05	1701
bin	2.60592e-05	1752
bin	2.61304e-05	1711
bin	2.62016e-05	1694
bin	2.62728e-05	1695
bin	2.6344e-05	1704
bin	2.64152e-05	1665
bin	2.64864e-05	1739
bin	2.65576e-05	1715
bin	2.66288e-05	1699
bin	2.67e-05	1664
bin	2.67712e-05	1619
bin	2.68424e-05	1626
bin	2.69136e-05	1702
bin	2.69848e-05	1647
bin	2.7056e-05	1682
bin	2.71272e-05	1644
bin	2.71984e-05	1704
bin	2.72696e-05	1727
bin	2.73408e-05	1629
bin	2.7412e-05	1687
bin	2.74832e-05	1639
bin	2.75544e-05	1709
bin	2.76256e-05	1696
bin	2.76968e-05	1700
bin	2.7768e-05	1699
bin	2.78392e-05	1721
bin	2.79104e-05	1685
bin	2.79816e-05	1717
bin	2.80528e-05	1677
bin	2.8124e-05	1609
bin	2.81952e-05	1648
bin	2.82664e-05	1674
bin	2.83376e-05	1661
bin	2.84088e-05	1623
bin	2.848e-05	1587
bin	2.85512e-05	1621
bin	2.86224e-05	1665
bin	2.86936e-05	1696
bin	2.87648e-05	1644
bin	2.8836e-05	1657
bin	2.89072e-05	1692
bin	2.89784e-05	1647
bin	2.90496e-05	1624
bin	2.91208e-05	1593
bin	2.9192e-05	1559
bin	2.92632e-05	1666
bin	2.93344e-05	1614
bin	2.94056e-05	1548
bin	2.94768e-05	1507
bin	2.9548e-05	1591
bin	2.96192e-05	1594
bin	2.96904e-05	1602
bin	2.97616e-05	1622
bin	2.98328e-05	1550
bin	2.9904e-05	1583
bin	2.99752e-05	1507
bin	3.00464e-05	1526
bin	3.01176e-05	1564
bin	3.01888e-05	1597
bin	3.026e-05	1611
bin	3.03312e-05	1609
bin	3.04024e-05	1662
bin	3.04736e-05	1645
bin	3.05448e-05	1594
bin	3.0616e-05	1691
bin	3.06872e-05	1657
bin	3.07584e-05	1618
bin	3.08296e-05	1668
bin	3.09008e-05	1643
bin	3.0972e-05	1674
bin	3.10432e-05	1661
bin	3.11144e-05	1696
bin	3.11856e-05	1631
bin	3.12568e-05	1631
bin	3.1328e-05	1622
bin	3.13992e-05	1555
bin	3.14704e-05	1570
bin	3.15416e-05	1514
bin	3.16128e-05	1583
bin	3.1684e-05	1650
bin	3.17552e-05	1564
bin	3.18264e-05	1594
bin	3.18976e-05	1608
bin	3.19688e-05	1549
bin	3.204e-05	1568
bin	3.21112e-05	1560
bin	3.21824e-05	1562
bin	3.22536e-05	1609
bin	3.23248e-05	1644
bin	3.2396e-05	1571
bin	3.24672e-05	1548
bin	3.25384e-05	1530
bin	3.26096e-05	1613
bin	3.26808e-05	1605
bin	3.2752e-05	1586
bin	3.28232e-05	1640
bin	3.28944e-05	1715
bin	3.29656e-05	1675
bin	3.30368e-05	1591
bin	3.3108e-05	1622
bin	3.31792e-05	1635
bin	3.32504e-05	1668
bin	3.33216e-05	1718
bin	3.33928e-05	1682
bin	3.3464e-05	1628
bin	3.35352e-05	1664
bin	3.36064e-05	1669
bin	3.36776e-05	1632
bin	3.37488e-05	1653
bin	3.382e-05	1647
bin	3.38912e-05	1667
bin	3.39624e-05	1693
bin	3.40336e-05	1657
bin	3.41048e-05	1680
bin	3.4176e-05	1680
bin	3.42472e-05	1696
bin	3.43184e-05	1658
bin	3.43896e-05	1674
bin	3.44608e-05	1708
bin	3.4532e-05	1718
bin	3.46032e-05	1705
bin	3.46744e-05	1735
bin	3.47456e-05	1691
bin	3.48168e-05	1617
bin	3.4888e-05	1703
bin	3.49592e-05	1654
bin	3.50304e-05	1663
bin	3.51016e-05	1670
bin	3.51728e-05	1707
bin	3.5244e-05	1637
bin	3.53152e-05	1584
bin	3.53864e-05	1661
bin	3.54576e-05	1604
bin	3.55288e-05	1647
bin	3.56e-05	4240686
statistic Torus3d_bub.timer 	"Life Times"
field count 6291456
field mean 0.0010811830642921
field stddev 0.00089570174429586
field sum 6802.215676939
field sqrsum 12.401959065999
field min 1.64e-07
field max 0.003780201333285
bin	-INF	0
bin	0	6208
bin	8.544e-07	8192
bin	1.7088e-06	8852
bin	2.5632e-06	9461
bin	3.4176e-06	10266
bin	4.272e-06	11254
bin	5.1264e-06	12423
bin	5.9808e-06	13696
bin	6.8352e-06	15178
bin	7.6896e-06	16492
bin	8.544e-06	18018
bin	9.3984e-06	19472
bin	1.02528e-05	14587
bin	1.11072e-05	13677
bin	1.19616e-05	14574
bin	1.2816e-05	15346
bin	1.36704e-05	16052
bin	1.45248e-05	16879
bin	1.53792e-05	17542
bin	1.62336e-05	18373
bin	1.7088e-05	18514
bin	1.79424e-05	19122
bin	1.87968e-05	19466
bin	1.96512e-05	19885
bin	2.05056e-05	20383
bin	2.136e-05	20378
bin	2.22144e-05	21151
bin	2.30688e-05	21461
bin	2.39232e-05	22035
bin	2.47776e-05	22211
bin	2.5632e-05	22419
bin	2.64864e-05	22862
bin	2.73408e-05	22506
bin	2.81952e-05	22553
bin	2.90496e-05	22251
bin	2.9904e-05	22168
bin	3.07584e-05	21800
bin	3.16128e-05	21254
bin	3.24672e-05	20126
bin	3.33216e-05	19637
bin	3.4176e-05	18618
bin	3.50304e-05	17918
bin	3.58848e-05	17137
bin	3.67392e-05	16005
bin	3.75936e-05	15001
bin	3.8448e-05	13970
bin	3.93024e-05	13073
bin	4.01568e-05	12218
bin	4.10112e-05	11420
bin	4.18656e-05	10827
bin	4.272e-05	10261
bin	4.35744e-05	10061
bin	4.44288e-05	9661
bin	4.52832e-05	9135
bin	4.61376e-05	8797
bin	4.6992e-05	8520
bin	4.78464e-05	8333
bin	4.87008e-05	8282
bin	4.95552e-05	8070
bin	5.04096e-05	8006
bin	5.1264e-05	7821
bin	5.21184e-05	7648
bin	5.29728e-05	7703
bin	5.38272e-05	7476
bin	5.46816e-05	7439
bin	5.5536e-05	7463
bin	5.63904e-05	7593
bin	5.72448e-05	7420
bin	5.80992e-05	7278
bin	5.89536e-05	7292
bin	5.9808e-05	7385
bin	6.06624e-05	7431
bin	6.15168e-05	7362
bin	6.23712e-05	7355
bin	6.32256e-05	7386
bin	6.408e-05	7101
bin	6.49344e-05	7247
bin	6.57888e-05	7003
bin	6.66432e-05	6880
bin	6.74976e-05	6516
bin	6.8352e-05	6515
bin	6.92064e-05	6221
bin	7.00608e-05	6000
bin	7.09152e-05	5669
bin	7.17696e-05	5499
bin	7.2624e-05	5479
bin	7.34784e-05	5323
bin	7.43328e-05	5354
bin	7.51872e-05	5095
bin	7.60416e-05	5199
bin	7.6896e-05	5133
bin	7.77504e-05	5091
bin	7.86048e-05	4963
bin	7.94592e-05	4818
bin	8.03136e-05	4853
bin	8.1168e-05	4811
bin	8.20224e-05	4783
bin	8.28768e-05	4761
bin	8.37312e-05	4850
bin	8.45856e-05	4841
bin	8.544e-05	4819
bin	8.62944e-05	4748
bin	8.71488e-05	4832
bin	8.80032e-05	4770
bin	8.88576e-05	4742
bin	8.9712e-05	4939
bin	9.05664e-05	4769
bin	9.14208e-05	4724
bin	9.22752e-05	4763
bin	9.31296e-05	4841
bin	9.3984e-05	4853
bin	9.48384e-05	4742
bin	9.56928e-05	4742
bin	9.65472e-05	4509
bin	9.74016e-05	4514
bin	9.8256e-05	4505
bin	9.91104e-05	4302
bin	9.99648e-05	4261
bin	0.0001008192	4266
bin	0.0001016736	4137
bin	0.000102528	4060
bin	0.0001033824	3895
bin	0.0001042368	3893
bin	0.0001050912	3902
bin	0.0001059456	3742
bin	0.0001068	3788
bin	0.0001076544	3720
bin	0.0001085088	3713
bin	0.0001093632	3727
bin	0.0001102176	3670
bin	0.000111072	3672
bin	0.0001119264	3628
bin	0.0001127808	3697
bin	0.0001136352	3640
bin	0.0001144896	3711
bin	0.000115344	3719
bin	0.0001161984	3611
bin	0.0001170528	3704
bin	0.0001179072	3711
bin	0.0001187616	3702
bin	0.000119616	3650
bin	0.0001204704	3633
bin	0.0001213248	3652
bin	0.0001221792	3757
bin	0.0001230336	3710
bin	0.000123888	3807
bin	0.0001247424	3811
bin	0.0001255968	3712
bin	0.0001264512	3797
bin	0.0001273056	3664
bin	0.00012816	3683
bin	0.0001290144	3606
bin	0.0001298688	3464
bin	0.0001307232	3343
bin	0.0001315776	3431
bin	0.000132432	3392
bin	0.0001332864	3270
bin	0.0001341408	3248
bin	0.0001349952	3219
bin	0.0001358496	3056
bin	0.000136704	3148
bin	0.0001375584	3013
bin	0.0001384128	3124
bin	0.0001392672	3008
bin	0.0001401216	2936
bin	0.000140976	2952
bin	0.0001418304	2832
bin	0.0001426848	2971
bin	0.0001435392	2929
bin	0.0001443936	2928
bin	0.000145248	2948
bin	0.0001461024	3060
bin	0.0001469568	2958
bin	0.0001478112	3007
bin	0.0001486656	2991
bin	0.00014952	2965
bin	0.0001503744	2984
bin	0.0001512288	2977
bin	0.0001520832	2968
bin	0.0001529376	2998
bin	0.000153792	3028
bin	0.0001546464	3013
bin	0.0001555008	3051
bin	0.0001563552	3019
bin	0.0001572096	3034
bin	0.000158064	2992
bin	0.0001589184	3098
bin	0.0001597728	2925
bin	0.0001606272	2964
bin	0.0001614816	2847
bin	0.000162336	2787
bin	0.0001631904	2719
bin	0.0001640448	2691
bin	0.0001648992	2638
bin	0.0001657536	2567
bin	0.000166608	2641
bin	0.0001674624	2573
bin	0.0001683168	2548
bin	0.0001691712	2516
bin	0.0001700256	2510
bin	0.00017088	2538
bin	0.0001717344	2527
bin	0.0001725888	2480
bin	0.0001734432	2398
bin	0.0001742976	2507
bin	0.000175152	2482
bin	0.0001760064	2445
bin	0.0001768608	2497
bin	0.0001777152	2436
bin	0.0001785696	2476
bin	0.000179424	2614
bin	0.0001802784	2600
bin	0.0001811328	2663
bin	0.0001819872	2627
bin	0.0001828416	2595
bin	0.000183696	2589
bin	0.0001845504	2529
bin	0.0001854048	2674
bin	0.0001862592	2734
bin	0.0001871136	2609
bin	0.000187968	2705
bin	0.0001888224	2658
bin	0.0001896768	2612
bin	0.0001905312	2618
bin	0.0001913856	2551
bin	0.00019224	2485
bin	0.0001930944	2430
bin	0.0001939488	2386
bin	0.0001948032	2380
bin	0.0001956576	2338
bin	0.000196512	2371
bin	0.0001973664	2362
bin	0.0001982208	2303
bin	0.0001990752	2261
bin	0.0001999296	2238
bin	0.000200784	2225
bin	0.0002016384	2249
bin	0.0002024928	2193
bin	0.0002033472	2141
bin	0.0002042016	2204
bin	0.000205056	2267
bin	0.0002059104	2263
bin	0.0002067648	2316
bin	0.0002076192	2331
bin	0.0002084736	2385
bin	0.000209328	2333
bin	0.0002101824	2386
bin	0.0002110368	2343
bin	0.0002118912	2386
bin	0.0002127456	2334
bin	0.0002136	2328
bin	0.0002144544	2350
bin	0.0002153088	2393
bin	0.0002161632	2417
bin	0.0002170176	2391
bin	0.000217872	2491
bin	0.0002187264	2358
bin	0.0002195808	2416
bin	0.0002204352	2402
bin	0.0002212896	2431
bin	0.000222144	2314
bin	0.0002229984	2259
bin	0.0002238528	2191
bin	0.0002247072	2162
bin	0.0002255616	2254
bin	0.000226416	2126
bin	0.0002272704	2119
bin	0.0002281248	2027
bin	0.0002289792	2159
bin	0.0002298336	2109
bin	0.000230688	2050
bin	0.0002315424	2058
bin	0.0002323968	2078
bin	0.0002332512	2061
bin	0.0002341056	2149
bin	0.00023496	2122
bin	0.0002358144	2117
bin	0.0002366688	2133
bin	0.0002375232	2079
bin	0.0002383776	2100
bin	0.000239232	2168
bin	0.0002400864	2169
bin	0.0002409408	2085
bin	0.0002417952	2163
bin	0.0002426496	2194
bin	0.000243504	2144
bin	0.0002443584	2164
bin	0.0002452128	2198
bin	0.0002460672	2308
bin	0.0002469216	2250
bin	0.000247776	2307
bin	0.0002486304	2309
bin	0.0002494848	2261
bin	0.0002503392	2269
bin	0.0002511936	2305
bin	0.000252048	2301
bin	0.0002529024	2166
bin	0.0002537568	2122
bin	0.0002546112	2150
bin	0.0002554656	2138
bin	0.00025632	2048
bin	0.0002571744	2023
bin	0.0002580288	2054
bin	0.0002588832	1950
bin	0.0002597376	1898
bin	0.000260592	1980
bin	0.0002614464	2009
bin	0.0002623008	1944
bin	0.0002631552	1992
bin	0.0002640096	1986
bin	0.000264864	1959
bin	0.0002657184	1959
bin	0.0002665728	1937
bin	0.0002674272	2019
bin	0.0002682816	2039
bin	0.000269136	2087
bin	0.0002699904	2081
bin	0.0002708448	2069
bin	0.0002716992	2058
bin	0.0002725536	2049
bin	0.000273408	1998
bin	0.0002742624	2064
bin	0.0002751168	2081
bin	0.0002759712	2022
bin	0.0002768256	1981
bin	0.00027768	2027
bin	0.0002785344	2131
bin	0.0002793888	2153
bin	0.0002802432	2172
bin	0.0002810976	2077
bin	0.000281952	2093
bin	0.0002828064	2057
bin	0.0002836608	1944
bin	0.0002845152	1959
bin	0.0002853696	1981
bin	0.000286224	1920
bin	0.0002870784	1958
bin	0.0002879328	1837
bin	0.0002887872	1871
bin	0.0002896416	1851
bin	0.000290496	1867
bin	0.0002913504	1748
bin	0.0002922048	1832
bin	0.0002930592	1841
bin	0.0002939136	1840
bin	0.000294768	1773
bin	0.0002956224	1871
bin	0.0002964768	1868
bin	0.0002973312	1808
bin	0.0002981856	1834
bin	0.00029904	1845
bin	0.0002998944	1891
bin	0.0003007488	1881
bin	0.0003016032	1908
bin	0.0003024576	1848
bin	0.000303312	1944
bin	0.0003041664	1940
bin	0.0003050208	1905
bin	0.0003058752	2073
bin	0.0003067296	2026
bin	0.000307584	1967
bin	0.0003084384	1975
bin	0.0003092928	1975
bin	0.0003101472	1941
bin	0.0003110016	2012
bin	0.000311856	1956
bin	0.0003127104	1942
bin	0.0003135648	2001
bin	0.0003144192	1923
bin	0.0003152736	1824
bin	0.000316128	1795
bin	0.0003169824	1815
bin	0.0003178368	1847
bin	0.0003186912	1800
bin	0.0003195456	1803
bin	0.0003204	1792
bin	0.0003212544	1748
bin	0.0003221088	1807
bin	0.0003229632	1798
bin	0.0003238176	1699
bin	0.000324672	1733
bin	0.0003255264	1736
bin	0.0003263808	1743
bin	0.0003272352	1787
bin	0.0003280896	1767
bin	0.000328944	1775
bin	0.0003297984	1768
bin	0.0003306528	1819
bin	0.0003315072	1816
bin	0.0003323616	1921
bin	0.000333216	1877
bin	0.0003340704	1864
bin	0.0003349248	1828
bin	0.0003357792	1884
bin	0.0003366336	1829
bin	0.000337488	1874
bin	0.0003383424	1931
bin	0.0003391968	1935
bin	0.0003400512	1944
bin	0.0003409056	1889
bin	0.00034176	1924
bin	0.0003426144	1940
bin	0.0003434688	1876
bin	0.0003443232	1972
bin	0.0003451776	1896
bin	0.000346032	1862
bin	0.0003468864	1841
bin	0.0003477408	1819
bin	0.0003485952	1770
bin	0.0003494496	1802
bin	0.000350304	1719
bin	0.0003511584	1715
bin	0.0003520128	1710
bin	0.0003528672	1678
bin	0.0003537216	1769
bin	0.000354576	1805
bin	0.0003554304	1780
bin	0.0003562848	1819
bin	0.0003571392	1861
bin	0.0003579936	1770
bin	0.000358848	1770
bin	0.0003597024	1829
bin	0.0003605568	1783
bin	0.0003614112	1811
bin	0.0003622656	1824
bin	0.00036312	1769
bin	0.0003639744	1880
bin	0.0003648288	1843
bin	0.0003656832	1820
bin	0.0003665376	1838
bin	0.000367392	1871
bin	0.0003682464	1757
bin	0.0003691008	1864
bin	0.0003699552	1917
bin	0.0003708096	1936
bin	0.000371664	1899
bin	0.0003725184	1901
bin	0.0003733728	1827
bin	0.0003742272	1892
bin	0.0003750816	1888
bin	0.000375936	1845
bin	0.0003767904	1792
bin	0.0003776448	1818
bin	0.0003784992	1750
bin	0.0003793536	1802
bin	0.000380208	1724
bin	0.0003810624	1733
bin	0.0003819168	1736
bin	0.0003827712	1733
bin	0.0003836256	1702
bin	0.00038448	1700
bin	0.0003853344	1658
bin	0.0003861888	1661
bin	0.0003870432	1706
bin	0.0003878976	1654
bin	0.000388752	1662
bin	0.0003896064	1721
bin	0.0003904608	1682
bin	0.0003913152	1668
bin	0.0003921696	1669
bin	0.000393024	1697
bin	0.0003938784	1787
bin	0.0003947328	1782
bin	0.0003955872	1823
bin	0.0003964416	1803
bin	0.000397296	1745
bin	0.0003981504	1817
bin	0.0003990048	1838
bin	0.0003998592	1703
bin	0.0004007136	1697
bin	0.000401568	1701
bin	0.0004024224	1721
bin	0.0004032768	1650
bin	0.0004041312	1800
bin	0.0004049856	1654
bin	0.00040584	1651
bin	0.0004066944	1688
bin	0.0004075488	1682
bin	0.0004084032	1578
bin	0.0004092576	1586
bin	0.000410112	1621
bin	0.0004109664	1586
bin	0.0004118208	1622
bin	0.0004126752	1603
bin	0.0004135296	1627
bin	0.000414384	1526
bin	0.0004152384	1606
bin	0.0004160928	1594
bin	0.0004169472	1577
bin	0.0004178016	1637
bin	0.000418656	1575
bin	0.0004195104	1599
bin	0.0004203648	1662
bin	0.0004212192	1620
bin	0.0004220736	1580
bin	0.000422928	1645
bin	0.0004237824	1642
bin	0.0004246368	1649
bin	0.0004254912	1604
bin	0.0004263456	1651
bin	0.0004272	4151734
