version 2
run Transposition-74-20120710-18:49:42-28029
attr alg 2
attr buf 8
attr configname Transposition
attr datetime 20120710-18:49:42
attr delta 0.8
attr experiment Transposition
attr ext false
attr inifile altro.ini
attr iterationvars "$buf=8, $ext=false, $ofedge=2, $delta=0.8, $alg=2"
attr iterationvars2 "$buf=8, $ext=false, $ofedge=2, $delta=0.8, $alg=2, $repetition=0"
attr measurement "$buf=8, $ext=false, $ofedge=2, $delta=0.8, $alg=2"
attr network Torus3d_bub
attr ofedge 2
attr processid 28029
attr repetition 0
attr replication #0
attr resultdir altro-results
attr runnumber 74
attr seedset 74

scalar . 	alg 	2
scalar . 	buf 	8
scalar . 	delta 	0.8
scalar . 	ofedge 	2
scalar Torus3d_bub.timer 	#endTime 	0.004325630666617
scalar Torus3d_bub.timer 	#totalHops 	89060248
scalar Torus3d_bub.timer 	#totalPacks 	6291456
scalar Torus3d_bub.timer 	#totalDerouted 	1865516
scalar Torus3d_bub.timer 	#totalOutFlanked 	0
scalar Torus3d_bub.timer 	#totalCQRed 	1865516
scalar Torus3d_bub.timer 	#LB 	0.000786432
scalar Torus3d_bub.timer 	#ratio 	0.1818074774782
statistic Torus3d_bub.timer 	"Hop Times"
field count 6193152
field mean 0.00010980872911277
field stddev 8.6152399225452e-05
field sum 680.06215032223
field sqrsum 0.12064378808323
field min 3.74222222e-07
field max 0.000839414466647
bin	-INF	0
bin	0	0
bin	7.12e-08	0
bin	1.424e-07	0
bin	2.136e-07	0
bin	2.848e-07	0
bin	3.56e-07	268
bin	4.272e-07	995
bin	4.984e-07	1774
bin	5.696e-07	2978
bin	6.408e-07	4779
bin	7.12e-07	6342
bin	7.832e-07	8022
bin	8.544e-07	9363
bin	9.256e-07	10408
bin	9.968e-07	11730
bin	1.068e-06	12697
bin	1.1392e-06	13826
bin	1.2104e-06	14983
bin	1.2816e-06	16481
bin	1.3528e-06	18279
bin	1.424e-06	20777
bin	1.4952e-06	22506
bin	1.5664e-06	24767
bin	1.6376e-06	26411
bin	1.7088e-06	27721
bin	1.78e-06	28278
bin	1.8512e-06	28976
bin	1.9224e-06	29624
bin	1.9936e-06	29759
bin	2.0648e-06	29610
bin	2.136e-06	28913
bin	2.2072e-06	28848
bin	2.2784e-06	27981
bin	2.3496e-06	27197
bin	2.4208e-06	26283
bin	2.492e-06	25008
bin	2.5632e-06	24121
bin	2.6344e-06	23133
bin	2.7056e-06	22675
bin	2.7768e-06	21620
bin	2.848e-06	20851
bin	2.9192e-06	19964
bin	2.9904e-06	19162
bin	3.0616e-06	18107
bin	3.1328e-06	17494
bin	3.204e-06	16503
bin	3.2752e-06	15955
bin	3.3464e-06	15272
bin	3.4176e-06	14691
bin	3.4888e-06	13820
bin	3.56e-06	13370
bin	3.6312e-06	12545
bin	3.7024e-06	12154
bin	3.7736e-06	11527
bin	3.8448e-06	10885
bin	3.916e-06	10356
bin	3.9872e-06	10045
bin	4.0584e-06	9513
bin	4.1296e-06	9031
bin	4.2008e-06	8687
bin	4.272e-06	8422
bin	4.3432e-06	8081
bin	4.4144e-06	7678
bin	4.4856e-06	7512
bin	4.5568e-06	7386
bin	4.628e-06	7033
bin	4.6992e-06	6792
bin	4.7704e-06	6678
bin	4.8416e-06	6520
bin	4.9128e-06	6391
bin	4.984e-06	6261
bin	5.0552e-06	5999
bin	5.1264e-06	5945
bin	5.1976e-06	5638
bin	5.2688e-06	5628
bin	5.34e-06	5456
bin	5.4112e-06	5340
bin	5.4824e-06	5241
bin	5.5536e-06	5053
bin	5.6248e-06	4974
bin	5.696e-06	4957
bin	5.7672e-06	4801
bin	5.8384e-06	4849
bin	5.9096e-06	4903
bin	5.9808e-06	4707
bin	6.052e-06	4704
bin	6.1232e-06	4605
bin	6.1944e-06	4460
bin	6.2656e-06	4403
bin	6.3368e-06	4292
bin	6.408e-06	4203
bin	6.4792e-06	4085
bin	6.5504e-06	3979
bin	6.6216e-06	3864
bin	6.6928e-06	3708
bin	6.764e-06	3604
bin	6.8352e-06	3649
bin	6.9064e-06	3621
bin	6.9776e-06	3501
bin	7.0488e-06	3468
bin	7.12e-06	3443
bin	7.1912e-06	3340
bin	7.2624e-06	3465
bin	7.3336e-06	3322
bin	7.4048e-06	3308
bin	7.476e-06	3221
bin	7.5472e-06	3143
bin	7.6184e-06	2986
bin	7.6896e-06	2968
bin	7.7608e-06	2872
bin	7.832e-06	2902
bin	7.9032e-06	2817
bin	7.9744e-06	2785
bin	8.0456e-06	2834
bin	8.1168e-06	2853
bin	8.188e-06	2673
bin	8.2592e-06	2671
bin	8.3304e-06	2685
bin	8.4016e-06	2592
bin	8.4728e-06	2557
bin	8.544e-06	2539
bin	8.6152e-06	2447
bin	8.6864e-06	2566
bin	8.7576e-06	2467
bin	8.8288e-06	2451
bin	8.9e-06	2433
bin	8.9712e-06	2477
bin	9.0424e-06	2387
bin	9.1136e-06	2416
bin	9.1848e-06	2386
bin	9.256e-06	2489
bin	9.3272e-06	2372
bin	9.3984e-06	2409
bin	9.4696e-06	2392
bin	9.5408e-06	2339
bin	9.612e-06	2457
bin	9.6832e-06	2474
bin	9.7544e-06	2434
bin	9.8256e-06	2310
bin	9.8968e-06	2339
bin	9.968e-06	2360
bin	1.00392e-05	2298
bin	1.01104e-05	2197
bin	1.01816e-05	2237
bin	1.02528e-05	2235
bin	1.0324e-05	2259
bin	1.03952e-05	2198
bin	1.04664e-05	2099
bin	1.05376e-05	2106
bin	1.06088e-05	2093
bin	1.068e-05	2095
bin	1.07512e-05	2036
bin	1.08224e-05	2015
bin	1.08936e-05	2113
bin	1.09648e-05	2037
bin	1.1036e-05	2081
bin	1.11072e-05	2041
bin	1.11784e-05	2026
bin	1.12496e-05	1943
bin	1.13208e-05	1978
bin	1.1392e-05	1849
bin	1.14632e-05	1971
bin	1.15344e-05	1923
bin	1.16056e-05	1898
bin	1.16768e-05	1922
bin	1.1748e-05	1951
bin	1.18192e-05	1936
bin	1.18904e-05	1941
bin	1.19616e-05	1841
bin	1.20328e-05	1854
bin	1.2104e-05	1937
bin	1.21752e-05	1866
bin	1.22464e-05	1904
bin	1.23176e-05	1904
bin	1.23888e-05	1875
bin	1.246e-05	1909
bin	1.25312e-05	1890
bin	1.26024e-05	1803
bin	1.26736e-05	1808
bin	1.27448e-05	1805
bin	1.2816e-05	1830
bin	1.28872e-05	1791
bin	1.29584e-05	1763
bin	1.30296e-05	1810
bin	1.31008e-05	1699
bin	1.3172e-05	1782
bin	1.32432e-05	1746
bin	1.33144e-05	1767
bin	1.33856e-05	1692
bin	1.34568e-05	1722
bin	1.3528e-05	1656
bin	1.35992e-05	1686
bin	1.36704e-05	1654
bin	1.37416e-05	1685
bin	1.38128e-05	1597
bin	1.3884e-05	1600
bin	1.39552e-05	1594
bin	1.40264e-05	1474
bin	1.40976e-05	1575
bin	1.41688e-05	1592
bin	1.424e-05	1563
bin	1.43112e-05	1561
bin	1.43824e-05	1571
bin	1.44536e-05	1560
bin	1.45248e-05	1553
bin	1.4596e-05	1551
bin	1.46672e-05	1526
bin	1.47384e-05	1475
bin	1.48096e-05	1496
bin	1.48808e-05	1447
bin	1.4952e-05	1454
bin	1.50232e-05	1458
bin	1.50944e-05	1419
bin	1.51656e-05	1380
bin	1.52368e-05	1419
bin	1.5308e-05	1414
bin	1.53792e-05	1382
bin	1.54504e-05	1370
bin	1.55216e-05	1385
bin	1.55928e-05	1415
bin	1.5664e-05	1446
bin	1.57352e-05	1448
bin	1.58064e-05	1362
bin	1.58776e-05	1403
bin	1.59488e-05	1343
bin	1.602e-05	1330
bin	1.60912e-05	1327
bin	1.61624e-05	1265
bin	1.62336e-05	1357
bin	1.63048e-05	1303
bin	1.6376e-05	1304
bin	1.64472e-05	1299
bin	1.65184e-05	1220
bin	1.65896e-05	1188
bin	1.66608e-05	1174
bin	1.6732e-05	1208
bin	1.68032e-05	1185
bin	1.68744e-05	1171
bin	1.69456e-05	1161
bin	1.70168e-05	1185
bin	1.7088e-05	1219
bin	1.71592e-05	1214
bin	1.72304e-05	1221
bin	1.73016e-05	1157
bin	1.73728e-05	1211
bin	1.7444e-05	1181
bin	1.75152e-05	1280
bin	1.75864e-05	1188
bin	1.76576e-05	1201
bin	1.77288e-05	1180
bin	1.78e-05	1171
bin	1.78712e-05	1210
bin	1.79424e-05	1229
bin	1.80136e-05	1202
bin	1.80848e-05	1198
bin	1.8156e-05	1194
bin	1.82272e-05	1202
bin	1.82984e-05	1248
bin	1.83696e-05	1165
bin	1.84408e-05	1250
bin	1.8512e-05	1194
bin	1.85832e-05	1223
bin	1.86544e-05	1254
bin	1.87256e-05	1311
bin	1.87968e-05	1298
bin	1.8868e-05	1281
bin	1.89392e-05	1327
bin	1.90104e-05	1310
bin	1.90816e-05	1306
bin	1.91528e-05	1344
bin	1.9224e-05	1264
bin	1.92952e-05	1317
bin	1.93664e-05	1310
bin	1.94376e-05	1274
bin	1.95088e-05	1263
bin	1.958e-05	1280
bin	1.96512e-05	1294
bin	1.97224e-05	1315
bin	1.97936e-05	1377
bin	1.98648e-05	1338
bin	1.9936e-05	1294
bin	2.00072e-05	1340
bin	2.00784e-05	1225
bin	2.01496e-05	1225
bin	2.02208e-05	1235
bin	2.0292e-05	1206
bin	2.03632e-05	1210
bin	2.04344e-05	1117
bin	2.05056e-05	1141
bin	2.05768e-05	1141
bin	2.0648e-05	1213
bin	2.07192e-05	1174
bin	2.07904e-05	1154
bin	2.08616e-05	1228
bin	2.09328e-05	1191
bin	2.1004e-05	1198
bin	2.10752e-05	1171
bin	2.11464e-05	1125
bin	2.12176e-05	1145
bin	2.12888e-05	1174
bin	2.136e-05	1131
bin	2.14312e-05	1177
bin	2.15024e-05	1194
bin	2.15736e-05	1154
bin	2.16448e-05	1175
bin	2.1716e-05	1192
bin	2.17872e-05	1150
bin	2.18584e-05	1219
bin	2.19296e-05	1184
bin	2.20008e-05	1198
bin	2.2072e-05	1118
bin	2.21432e-05	1121
bin	2.22144e-05	1081
bin	2.22856e-05	1113
bin	2.23568e-05	1068
bin	2.2428e-05	1122
bin	2.24992e-05	1112
bin	2.25704e-05	1073
bin	2.26416e-05	1120
bin	2.27128e-05	1131
bin	2.2784e-05	1210
bin	2.28552e-05	1163
bin	2.29264e-05	1115
bin	2.29976e-05	1108
bin	2.30688e-05	1074
bin	2.314e-05	1065
bin	2.32112e-05	1086
bin	2.32824e-05	1071
bin	2.33536e-05	1063
bin	2.34248e-05	1066
bin	2.3496e-05	1101
bin	2.35672e-05	1133
bin	2.36384e-05	1117
bin	2.37096e-05	1104
bin	2.37808e-05	1132
bin	2.3852e-05	1125
bin	2.39232e-05	1076
bin	2.39944e-05	1083
bin	2.40656e-05	1045
bin	2.41368e-05	1021
bin	2.4208e-05	1090
bin	2.42792e-05	1043
bin	2.43504e-05	1110
bin	2.44216e-05	1040
bin	2.44928e-05	1065
bin	2.4564e-05	1041
bin	2.46352e-05	1050
bin	2.47064e-05	1084
bin	2.47776e-05	1112
bin	2.48488e-05	1107
bin	2.492e-05	1125
bin	2.49912e-05	1069
bin	2.50624e-05	1129
bin	2.51336e-05	1099
bin	2.52048e-05	1056
bin	2.5276e-05	1064
bin	2.53472e-05	1095
bin	2.54184e-05	1111
bin	2.54896e-05	1045
bin	2.55608e-05	1074
bin	2.5632e-05	1039
bin	2.57032e-05	1060
bin	2.57744e-05	1057
bin	2.58456e-05	1039
bin	2.59168e-05	1037
bin	2.5988e-05	1056
bin	2.60592e-05	1007
bin	2.61304e-05	1013
bin	2.62016e-05	1028
bin	2.62728e-05	1038
bin	2.6344e-05	1016
bin	2.64152e-05	984
bin	2.64864e-05	1051
bin	2.65576e-05	1016
bin	2.66288e-05	1048
bin	2.67e-05	1023
bin	2.67712e-05	1066
bin	2.68424e-05	939
bin	2.69136e-05	990
bin	2.69848e-05	991
bin	2.7056e-05	982
bin	2.71272e-05	1001
bin	2.71984e-05	1028
bin	2.72696e-05	1026
bin	2.73408e-05	1037
bin	2.7412e-05	997
bin	2.74832e-05	1030
bin	2.75544e-05	968
bin	2.76256e-05	1013
bin	2.76968e-05	1015
bin	2.7768e-05	1045
bin	2.78392e-05	1027
bin	2.79104e-05	1048
bin	2.79816e-05	1059
bin	2.80528e-05	1055
bin	2.8124e-05	1079
bin	2.81952e-05	1050
bin	2.82664e-05	1060
bin	2.83376e-05	1019
bin	2.84088e-05	1066
bin	2.848e-05	1105
bin	2.85512e-05	1089
bin	2.86224e-05	1060
bin	2.86936e-05	1060
bin	2.87648e-05	1056
bin	2.8836e-05	1071
bin	2.89072e-05	1069
bin	2.89784e-05	1039
bin	2.90496e-05	1041
bin	2.91208e-05	1045
bin	2.9192e-05	1027
bin	2.92632e-05	1031
bin	2.93344e-05	978
bin	2.94056e-05	1052
bin	2.94768e-05	990
bin	2.9548e-05	1068
bin	2.96192e-05	1028
bin	2.96904e-05	969
bin	2.97616e-05	954
bin	2.98328e-05	957
bin	2.9904e-05	965
bin	2.99752e-05	976
bin	3.00464e-05	998
bin	3.01176e-05	1009
bin	3.01888e-05	947
bin	3.026e-05	901
bin	3.03312e-05	964
bin	3.04024e-05	951
bin	3.04736e-05	941
bin	3.05448e-05	950
bin	3.0616e-05	928
bin	3.06872e-05	985
bin	3.07584e-05	986
bin	3.08296e-05	953
bin	3.09008e-05	996
bin	3.0972e-05	1035
bin	3.10432e-05	1000
bin	3.11144e-05	977
bin	3.11856e-05	1021
bin	3.12568e-05	986
bin	3.1328e-05	969
bin	3.13992e-05	915
bin	3.14704e-05	942
bin	3.15416e-05	977
bin	3.16128e-05	907
bin	3.1684e-05	978
bin	3.17552e-05	912
bin	3.18264e-05	944
bin	3.18976e-05	938
bin	3.19688e-05	960
bin	3.204e-05	917
bin	3.21112e-05	934
bin	3.21824e-05	950
bin	3.22536e-05	890
bin	3.23248e-05	899
bin	3.2396e-05	973
bin	3.24672e-05	999
bin	3.25384e-05	975
bin	3.26096e-05	961
bin	3.26808e-05	951
bin	3.2752e-05	969
bin	3.28232e-05	1000
bin	3.28944e-05	1049
bin	3.29656e-05	1028
bin	3.30368e-05	1041
bin	3.3108e-05	1043
bin	3.31792e-05	1049
bin	3.32504e-05	1034
bin	3.33216e-05	1025
bin	3.33928e-05	1042
bin	3.3464e-05	1008
bin	3.35352e-05	942
bin	3.36064e-05	1023
bin	3.36776e-05	974
bin	3.37488e-05	998
bin	3.382e-05	969
bin	3.38912e-05	1004
bin	3.39624e-05	987
bin	3.40336e-05	954
bin	3.41048e-05	969
bin	3.4176e-05	943
bin	3.42472e-05	896
bin	3.43184e-05	1009
bin	3.43896e-05	958
bin	3.44608e-05	1038
bin	3.4532e-05	1014
bin	3.46032e-05	1020
bin	3.46744e-05	1007
bin	3.47456e-05	1006
bin	3.48168e-05	1038
bin	3.4888e-05	1031
bin	3.49592e-05	963
bin	3.50304e-05	926
bin	3.51016e-05	931
bin	3.51728e-05	939
bin	3.5244e-05	962
bin	3.53152e-05	979
bin	3.53864e-05	1006
bin	3.54576e-05	996
bin	3.55288e-05	994
bin	3.56e-05	4486424
statistic Torus3d_bub.timer 	"Life Times"
field count 6291456
field mean 0.0015147195472338
field stddev 0.0011608834824741
field sum 9529.7913837616
field sqrsum 22.913643514117
field min 1.64e-07
field max 0.004284883666617
bin	-INF	0
bin	0	6208
bin	8.544e-07	8192
bin	1.7088e-06	8763
bin	2.5632e-06	9287
bin	3.4176e-06	10236
bin	4.272e-06	11223
bin	5.1264e-06	12417
bin	5.9808e-06	13683
bin	6.8352e-06	15018
bin	7.6896e-06	16394
bin	8.544e-06	17717
bin	9.3984e-06	19322
bin	1.02528e-05	14549
bin	1.11072e-05	13583
bin	1.19616e-05	14602
bin	1.2816e-05	15836
bin	1.36704e-05	16510
bin	1.45248e-05	17537
bin	1.53792e-05	18339
bin	1.62336e-05	18788
bin	1.7088e-05	19525
bin	1.79424e-05	20267
bin	1.87968e-05	20783
bin	1.96512e-05	21545
bin	2.05056e-05	22477
bin	2.136e-05	22933
bin	2.22144e-05	23755
bin	2.30688e-05	24480
bin	2.39232e-05	25548
bin	2.47776e-05	26263
bin	2.5632e-05	27196
bin	2.64864e-05	28216
bin	2.73408e-05	28783
bin	2.81952e-05	29372
bin	2.90496e-05	29308
bin	2.9904e-05	29357
bin	3.07584e-05	29342
bin	3.16128e-05	28861
bin	3.24672e-05	27388
bin	3.33216e-05	25842
bin	3.4176e-05	24309
bin	3.50304e-05	22991
bin	3.58848e-05	21354
bin	3.67392e-05	19800
bin	3.75936e-05	18477
bin	3.8448e-05	16653
bin	3.93024e-05	15361
bin	4.01568e-05	13911
bin	4.10112e-05	12592
bin	4.18656e-05	11425
bin	4.272e-05	10773
bin	4.35744e-05	9832
bin	4.44288e-05	9169
bin	4.52832e-05	8792
bin	4.61376e-05	8183
bin	4.6992e-05	7782
bin	4.78464e-05	7376
bin	4.87008e-05	7228
bin	4.95552e-05	6912
bin	5.04096e-05	6829
bin	5.1264e-05	6615
bin	5.21184e-05	6470
bin	5.29728e-05	6356
bin	5.38272e-05	6200
bin	5.46816e-05	6134
bin	5.5536e-05	6078
bin	5.63904e-05	6043
bin	5.72448e-05	6068
bin	5.80992e-05	6041
bin	5.89536e-05	6006
bin	5.9808e-05	6071
bin	6.06624e-05	6246
bin	6.15168e-05	6071
bin	6.23712e-05	6144
bin	6.32256e-05	6114
bin	6.408e-05	5988
bin	6.49344e-05	5863
bin	6.57888e-05	5888
bin	6.66432e-05	5578
bin	6.74976e-05	5200
bin	6.8352e-05	5098
bin	6.92064e-05	4900
bin	7.00608e-05	4735
bin	7.09152e-05	4505
bin	7.17696e-05	4292
bin	7.2624e-05	4051
bin	7.34784e-05	3865
bin	7.43328e-05	3701
bin	7.51872e-05	3568
bin	7.60416e-05	3372
bin	7.6896e-05	3434
bin	7.77504e-05	3395
bin	7.86048e-05	3282
bin	7.94592e-05	3196
bin	8.03136e-05	3181
bin	8.1168e-05	3200
bin	8.20224e-05	3113
bin	8.28768e-05	3055
bin	8.37312e-05	3030
bin	8.45856e-05	3060
bin	8.544e-05	3130
bin	8.62944e-05	3075
bin	8.71488e-05	3232
bin	8.80032e-05	3166
bin	8.88576e-05	3130
bin	8.9712e-05	3171
bin	9.05664e-05	3156
bin	9.14208e-05	3298
bin	9.22752e-05	3171
bin	9.31296e-05	3209
bin	9.3984e-05	3208
bin	9.48384e-05	3307
bin	9.56928e-05	3282
bin	9.65472e-05	3196
bin	9.74016e-05	3122
bin	9.8256e-05	3109
bin	9.91104e-05	3038
bin	9.99648e-05	2955
bin	0.0001008192	2842
bin	0.0001016736	2765
bin	0.000102528	2635
bin	0.0001033824	2648
bin	0.0001042368	2641
bin	0.0001050912	2461
bin	0.0001059456	2416
bin	0.0001068	2280
bin	0.0001076544	2274
bin	0.0001085088	2229
bin	0.0001093632	2221
bin	0.0001102176	2307
bin	0.000111072	2271
bin	0.0001119264	2183
bin	0.0001127808	2137
bin	0.0001136352	2218
bin	0.0001144896	2192
bin	0.000115344	2209
bin	0.0001161984	2198
bin	0.0001170528	2240
bin	0.0001179072	2237
bin	0.0001187616	2253
bin	0.000119616	2273
bin	0.0001204704	2342
bin	0.0001213248	2290
bin	0.0001221792	2370
bin	0.0001230336	2319
bin	0.000123888	2345
bin	0.0001247424	2311
bin	0.0001255968	2378
bin	0.0001264512	2322
bin	0.0001273056	2329
bin	0.00012816	2362
bin	0.0001290144	2171
bin	0.0001298688	2216
bin	0.0001307232	2157
bin	0.0001315776	2094
bin	0.000132432	2085
bin	0.0001332864	2024
bin	0.0001341408	1833
bin	0.0001349952	1827
bin	0.0001358496	1771
bin	0.000136704	1853
bin	0.0001375584	1724
bin	0.0001384128	1690
bin	0.0001392672	1696
bin	0.0001401216	1645
bin	0.000140976	1620
bin	0.0001418304	1675
bin	0.0001426848	1601
bin	0.0001435392	1614
bin	0.0001443936	1644
bin	0.000145248	1623
bin	0.0001461024	1669
bin	0.0001469568	1661
bin	0.0001478112	1675
bin	0.0001486656	1708
bin	0.00014952	1703
bin	0.0001503744	1664
bin	0.0001512288	1638
bin	0.0001520832	1660
bin	0.0001529376	1691
bin	0.000153792	1739
bin	0.0001546464	1824
bin	0.0001555008	1760
bin	0.0001563552	1855
bin	0.0001572096	1833
bin	0.000158064	1782
bin	0.0001589184	1818
bin	0.0001597728	1807
bin	0.0001606272	1822
bin	0.0001614816	1761
bin	0.000162336	1709
bin	0.0001631904	1650
bin	0.0001640448	1651
bin	0.0001648992	1600
bin	0.0001657536	1538
bin	0.000166608	1568
bin	0.0001674624	1518
bin	0.0001683168	1498
bin	0.0001691712	1518
bin	0.0001700256	1483
bin	0.00017088	1453
bin	0.0001717344	1476
bin	0.0001725888	1500
bin	0.0001734432	1462
bin	0.0001742976	1516
bin	0.000175152	1444
bin	0.0001760064	1483
bin	0.0001768608	1416
bin	0.0001777152	1408
bin	0.0001785696	1453
bin	0.000179424	1452
bin	0.0001802784	1443
bin	0.0001811328	1476
bin	0.0001819872	1390
bin	0.0001828416	1434
bin	0.000183696	1482
bin	0.0001845504	1494
bin	0.0001854048	1454
bin	0.0001862592	1490
bin	0.0001871136	1494
bin	0.000187968	1501
bin	0.0001888224	1530
bin	0.0001896768	1509
bin	0.0001905312	1491
bin	0.0001913856	1480
bin	0.00019224	1437
bin	0.0001930944	1398
bin	0.0001939488	1420
bin	0.0001948032	1338
bin	0.0001956576	1392
bin	0.000196512	1338
bin	0.0001973664	1309
bin	0.0001982208	1290
bin	0.0001990752	1183
bin	0.0001999296	1245
bin	0.000200784	1206
bin	0.0002016384	1199
bin	0.0002024928	1161
bin	0.0002033472	1155
bin	0.0002042016	1177
bin	0.000205056	1146
bin	0.0002059104	1171
bin	0.0002067648	1173
bin	0.0002076192	1178
bin	0.0002084736	1186
bin	0.000209328	1169
bin	0.0002101824	1173
bin	0.0002110368	1180
bin	0.0002118912	1267
bin	0.0002127456	1292
bin	0.0002136	1319
bin	0.0002144544	1292
bin	0.0002153088	1324
bin	0.0002161632	1255
bin	0.0002170176	1311
bin	0.000217872	1357
bin	0.0002187264	1324
bin	0.0002195808	1359
bin	0.0002204352	1357
bin	0.0002212896	1339
bin	0.000222144	1276
bin	0.0002229984	1307
bin	0.0002238528	1296
bin	0.0002247072	1287
bin	0.0002255616	1265
bin	0.000226416	1222
bin	0.0002272704	1180
bin	0.0002281248	1130
bin	0.0002289792	1143
bin	0.0002298336	1133
bin	0.000230688	1107
bin	0.0002315424	1104
bin	0.0002323968	1115
bin	0.0002332512	1049
bin	0.0002341056	1025
bin	0.00023496	1152
bin	0.0002358144	1170
bin	0.0002366688	1088
bin	0.0002375232	1124
bin	0.0002383776	1125
bin	0.000239232	1102
bin	0.0002400864	1113
bin	0.0002409408	1116
bin	0.0002417952	1130
bin	0.0002426496	1192
bin	0.000243504	1144
bin	0.0002443584	1095
bin	0.0002452128	1141
bin	0.0002460672	1117
bin	0.0002469216	1189
bin	0.000247776	1121
bin	0.0002486304	1126
bin	0.0002494848	1185
bin	0.0002503392	1190
bin	0.0002511936	1164
bin	0.000252048	1176
bin	0.0002529024	1107
bin	0.0002537568	1079
bin	0.0002546112	1091
bin	0.0002554656	1067
bin	0.00025632	1064
bin	0.0002571744	982
bin	0.0002580288	991
bin	0.0002588832	956
bin	0.0002597376	944
bin	0.000260592	931
bin	0.0002614464	951
bin	0.0002623008	956
bin	0.0002631552	911
bin	0.0002640096	983
bin	0.000264864	977
bin	0.0002657184	920
bin	0.0002665728	966
bin	0.0002674272	970
bin	0.0002682816	906
bin	0.000269136	956
bin	0.0002699904	970
bin	0.0002708448	964
bin	0.0002716992	925
bin	0.0002725536	962
bin	0.000273408	1027
bin	0.0002742624	987
bin	0.0002751168	1013
bin	0.0002759712	1021
bin	0.0002768256	1081
bin	0.00027768	1071
bin	0.0002785344	1129
bin	0.0002793888	1102
bin	0.0002802432	1083
bin	0.0002810976	1143
bin	0.000281952	1028
bin	0.0002828064	1073
bin	0.0002836608	1000
bin	0.0002845152	998
bin	0.0002853696	1034
bin	0.000286224	983
bin	0.0002870784	939
bin	0.0002879328	978
bin	0.0002887872	957
bin	0.0002896416	926
bin	0.000290496	946
bin	0.0002913504	891
bin	0.0002922048	893
bin	0.0002930592	877
bin	0.0002939136	844
bin	0.000294768	902
bin	0.0002956224	890
bin	0.0002964768	947
bin	0.0002973312	951
bin	0.0002981856	904
bin	0.00029904	931
bin	0.0002998944	960
bin	0.0003007488	984
bin	0.0003016032	914
bin	0.0003024576	973
bin	0.000303312	989
bin	0.0003041664	926
bin	0.0003050208	972
bin	0.0003058752	952
bin	0.0003067296	1017
bin	0.000307584	1018
bin	0.0003084384	1024
bin	0.0003092928	988
bin	0.0003101472	984
bin	0.0003110016	991
bin	0.000311856	977
bin	0.0003127104	1008
bin	0.0003135648	970
bin	0.0003144192	964
bin	0.0003152736	984
bin	0.000316128	952
bin	0.0003169824	974
bin	0.0003178368	949
bin	0.0003186912	909
bin	0.0003195456	919
bin	0.0003204	921
bin	0.0003212544	948
bin	0.0003221088	850
bin	0.0003229632	918
bin	0.0003238176	940
bin	0.000324672	937
bin	0.0003255264	936
bin	0.0003263808	873
bin	0.0003272352	912
bin	0.0003280896	899
bin	0.000328944	903
bin	0.0003297984	911
bin	0.0003306528	898
bin	0.0003315072	899
bin	0.0003323616	927
bin	0.000333216	958
bin	0.0003340704	977
bin	0.0003349248	1003
bin	0.0003357792	1014
bin	0.0003366336	1012
bin	0.000337488	972
bin	0.0003383424	999
bin	0.0003391968	1043
bin	0.0003400512	985
bin	0.0003409056	1048
bin	0.00034176	1030
bin	0.0003426144	1002
bin	0.0003434688	984
bin	0.0003443232	984
bin	0.0003451776	936
bin	0.000346032	948
bin	0.0003468864	941
bin	0.0003477408	933
bin	0.0003485952	912
bin	0.0003494496	897
bin	0.000350304	906
bin	0.0003511584	904
bin	0.0003520128	856
bin	0.0003528672	896
bin	0.0003537216	905
bin	0.000354576	853
bin	0.0003554304	866
bin	0.0003562848	832
bin	0.0003571392	880
bin	0.0003579936	868
bin	0.000358848	857
bin	0.0003597024	861
bin	0.0003605568	862
bin	0.0003614112	858
bin	0.0003622656	888
bin	0.00036312	926
bin	0.0003639744	893
bin	0.0003648288	895
bin	0.0003656832	811
bin	0.0003665376	840
bin	0.000367392	858
bin	0.0003682464	892
bin	0.0003691008	913
bin	0.0003699552	883
bin	0.0003708096	884
bin	0.000371664	861
bin	0.0003725184	881
bin	0.0003733728	868
bin	0.0003742272	859
bin	0.0003750816	875
bin	0.000375936	842
bin	0.0003767904	842
bin	0.0003776448	861
bin	0.0003784992	859
bin	0.0003793536	840
bin	0.000380208	808
bin	0.0003810624	802
bin	0.0003819168	825
bin	0.0003827712	777
bin	0.0003836256	781
bin	0.00038448	768
bin	0.0003853344	747
bin	0.0003861888	785
bin	0.0003870432	752
bin	0.0003878976	764
bin	0.000388752	761
bin	0.0003896064	775
bin	0.0003904608	812
bin	0.0003913152	811
bin	0.0003921696	835
bin	0.000393024	789
bin	0.0003938784	827
bin	0.0003947328	828
bin	0.0003955872	817
bin	0.0003964416	842
bin	0.000397296	863
bin	0.0003981504	860
bin	0.0003990048	886
bin	0.0003998592	889
bin	0.0004007136	856
bin	0.000401568	841
bin	0.0004024224	820
bin	0.0004032768	814
bin	0.0004041312	816
bin	0.0004049856	804
bin	0.00040584	770
bin	0.0004066944	855
bin	0.0004075488	791
bin	0.0004084032	843
bin	0.0004092576	899
bin	0.000410112	844
bin	0.0004109664	819
bin	0.0004118208	857
bin	0.0004126752	795
bin	0.0004135296	795
bin	0.000414384	827
bin	0.0004152384	794
bin	0.0004160928	840
bin	0.0004169472	816
bin	0.0004178016	809
bin	0.000418656	849
bin	0.0004195104	824
bin	0.0004203648	799
bin	0.0004212192	826
bin	0.0004220736	796
bin	0.000422928	829
bin	0.0004237824	823
bin	0.0004246368	821
bin	0.0004254912	811
bin	0.0004263456	842
bin	0.0004272	4518456
