version 2
run Transposition-48-20120710-13:15:41-25457
attr alg 0
attr buf 8
attr configname Transposition
attr datetime 20120710-13:15:41
attr delta 0.6
attr experiment Transposition
attr ext false
attr inifile altro.ini
attr iterationvars "$buf=8, $ext=false, $ofedge=1, $delta=0.6, $alg=0"
attr iterationvars2 "$buf=8, $ext=false, $ofedge=1, $delta=0.6, $alg=0, $repetition=0"
attr measurement "$buf=8, $ext=false, $ofedge=1, $delta=0.6, $alg=0"
attr network Torus3d_bub
attr ofedge 1
attr processid 25457
attr repetition 0
attr replication #0
attr resultdir altro-results
attr runnumber 48
attr seedset 48

scalar . 	alg 	0
scalar . 	buf 	8
scalar . 	delta 	0.6
scalar . 	ofedge 	1
scalar Torus3d_bub.timer 	#endTime 	0.003000338666469
scalar Torus3d_bub.timer 	#totalHops 	75497472
scalar Torus3d_bub.timer 	#totalPacks 	6291456
scalar Torus3d_bub.timer 	#totalDerouted 	0
scalar Torus3d_bub.timer 	#totalOutFlanked 	0
scalar Torus3d_bub.timer 	#totalCQRed 	0
scalar Torus3d_bub.timer 	#LB 	0.000786432
scalar Torus3d_bub.timer 	#ratio 	0.26211441021274
statistic Torus3d_bub.timer 	"Hop Times"
field count 6193152
field mean 3.7567646006109e-05
field stddev 4.5580123569925e-05
field sum 232.66214199803
field sqrsum 0.021607135386478
field min 3.74222222e-07
field max 0.0005776474
bin	-INF	0
bin	0	0
bin	7.12e-08	0
bin	1.424e-07	0
bin	2.136e-07	0
bin	2.848e-07	0
bin	3.56e-07	350
bin	4.272e-07	3123
bin	4.984e-07	6635
bin	5.696e-07	11067
bin	6.408e-07	15738
bin	7.12e-07	19828
bin	7.832e-07	23209
bin	8.544e-07	25197
bin	9.256e-07	27094
bin	9.968e-07	28420
bin	1.068e-06	30055
bin	1.1392e-06	32180
bin	1.2104e-06	34094
bin	1.2816e-06	37128
bin	1.3528e-06	40948
bin	1.424e-06	44422
bin	1.4952e-06	48511
bin	1.5664e-06	52154
bin	1.6376e-06	55009
bin	1.7088e-06	57826
bin	1.78e-06	59548
bin	1.8512e-06	61716
bin	1.9224e-06	63016
bin	1.9936e-06	64063
bin	2.0648e-06	64296
bin	2.136e-06	64306
bin	2.2072e-06	63966
bin	2.2784e-06	62544
bin	2.3496e-06	61466
bin	2.4208e-06	59556
bin	2.492e-06	57837
bin	2.5632e-06	56281
bin	2.6344e-06	54656
bin	2.7056e-06	52732
bin	2.7768e-06	50443
bin	2.848e-06	48841
bin	2.9192e-06	46785
bin	2.9904e-06	45491
bin	3.0616e-06	43210
bin	3.1328e-06	41970
bin	3.204e-06	40471
bin	3.2752e-06	38824
bin	3.3464e-06	36874
bin	3.4176e-06	35957
bin	3.4888e-06	34282
bin	3.56e-06	32960
bin	3.6312e-06	31461
bin	3.7024e-06	30053
bin	3.7736e-06	28811
bin	3.8448e-06	27554
bin	3.916e-06	26675
bin	3.9872e-06	25546
bin	4.0584e-06	24694
bin	4.1296e-06	23742
bin	4.2008e-06	22839
bin	4.272e-06	22266
bin	4.3432e-06	21127
bin	4.4144e-06	20734
bin	4.4856e-06	19480
bin	4.5568e-06	19053
bin	4.628e-06	18319
bin	4.6992e-06	17605
bin	4.7704e-06	16754
bin	4.8416e-06	16312
bin	4.9128e-06	15648
bin	4.984e-06	15141
bin	5.0552e-06	14622
bin	5.1264e-06	14213
bin	5.1976e-06	13737
bin	5.2688e-06	13435
bin	5.34e-06	13166
bin	5.4112e-06	13028
bin	5.4824e-06	12558
bin	5.5536e-06	12139
bin	5.6248e-06	11861
bin	5.696e-06	11496
bin	5.7672e-06	11279
bin	5.8384e-06	11039
bin	5.9096e-06	10733
bin	5.9808e-06	10602
bin	6.052e-06	10320
bin	6.1232e-06	10189
bin	6.1944e-06	9949
bin	6.2656e-06	9663
bin	6.3368e-06	9725
bin	6.408e-06	9641
bin	6.4792e-06	9612
bin	6.5504e-06	9186
bin	6.6216e-06	9159
bin	6.6928e-06	8915
bin	6.764e-06	8934
bin	6.8352e-06	8623
bin	6.9064e-06	8436
bin	6.9776e-06	8537
bin	7.0488e-06	8181
bin	7.12e-06	8025
bin	7.1912e-06	7937
bin	7.2624e-06	7983
bin	7.3336e-06	7745
bin	7.4048e-06	7518
bin	7.476e-06	7609
bin	7.5472e-06	7446
bin	7.6184e-06	7336
bin	7.6896e-06	7332
bin	7.7608e-06	7161
bin	7.832e-06	7138
bin	7.9032e-06	7023
bin	7.9744e-06	6928
bin	8.0456e-06	6915
bin	8.1168e-06	6640
bin	8.188e-06	6734
bin	8.2592e-06	6706
bin	8.3304e-06	6648
bin	8.4016e-06	6444
bin	8.4728e-06	6361
bin	8.544e-06	6410
bin	8.6152e-06	6310
bin	8.6864e-06	6085
bin	8.7576e-06	6083
bin	8.8288e-06	5911
bin	8.9e-06	5746
bin	8.9712e-06	5843
bin	9.0424e-06	5643
bin	9.1136e-06	5513
bin	9.1848e-06	5416
bin	9.256e-06	5406
bin	9.3272e-06	5321
bin	9.3984e-06	5132
bin	9.4696e-06	5062
bin	9.5408e-06	5160
bin	9.612e-06	4960
bin	9.6832e-06	5030
bin	9.7544e-06	4812
bin	9.8256e-06	4780
bin	9.8968e-06	4714
bin	9.968e-06	4669
bin	1.00392e-05	4545
bin	1.01104e-05	4662
bin	1.01816e-05	4523
bin	1.02528e-05	4500
bin	1.0324e-05	4605
bin	1.03952e-05	4513
bin	1.04664e-05	4477
bin	1.05376e-05	4412
bin	1.06088e-05	4381
bin	1.068e-05	4329
bin	1.07512e-05	4174
bin	1.08224e-05	4353
bin	1.08936e-05	4157
bin	1.09648e-05	4156
bin	1.1036e-05	4182
bin	1.11072e-05	4264
bin	1.11784e-05	4058
bin	1.12496e-05	3983
bin	1.13208e-05	4126
bin	1.1392e-05	3975
bin	1.14632e-05	3945
bin	1.15344e-05	3949
bin	1.16056e-05	3842
bin	1.16768e-05	3874
bin	1.1748e-05	3872
bin	1.18192e-05	3945
bin	1.18904e-05	3684
bin	1.19616e-05	3897
bin	1.20328e-05	3819
bin	1.2104e-05	3769
bin	1.21752e-05	3761
bin	1.22464e-05	3668
bin	1.23176e-05	3832
bin	1.23888e-05	3775
bin	1.246e-05	3822
bin	1.25312e-05	3831
bin	1.26024e-05	3753
bin	1.26736e-05	3804
bin	1.27448e-05	3810
bin	1.2816e-05	3825
bin	1.28872e-05	3749
bin	1.29584e-05	3663
bin	1.30296e-05	3645
bin	1.31008e-05	3571
bin	1.3172e-05	3658
bin	1.32432e-05	3548
bin	1.33144e-05	3427
bin	1.33856e-05	3419
bin	1.34568e-05	3276
bin	1.3528e-05	3317
bin	1.35992e-05	3350
bin	1.36704e-05	3269
bin	1.37416e-05	3210
bin	1.38128e-05	3253
bin	1.3884e-05	3349
bin	1.39552e-05	3199
bin	1.40264e-05	3271
bin	1.40976e-05	3234
bin	1.41688e-05	3220
bin	1.424e-05	3261
bin	1.43112e-05	3180
bin	1.43824e-05	3151
bin	1.44536e-05	3134
bin	1.45248e-05	3192
bin	1.4596e-05	3200
bin	1.46672e-05	3270
bin	1.47384e-05	3136
bin	1.48096e-05	3245
bin	1.48808e-05	3199
bin	1.4952e-05	3242
bin	1.50232e-05	3160
bin	1.50944e-05	3125
bin	1.51656e-05	3146
bin	1.52368e-05	3052
bin	1.5308e-05	3112
bin	1.53792e-05	3097
bin	1.54504e-05	3037
bin	1.55216e-05	3021
bin	1.55928e-05	3088
bin	1.5664e-05	3015
bin	1.57352e-05	3014
bin	1.58064e-05	2915
bin	1.58776e-05	3127
bin	1.59488e-05	3056
bin	1.602e-05	3084
bin	1.60912e-05	3033
bin	1.61624e-05	3000
bin	1.62336e-05	2967
bin	1.63048e-05	3072
bin	1.6376e-05	3016
bin	1.64472e-05	2941
bin	1.65184e-05	3010
bin	1.65896e-05	2948
bin	1.66608e-05	2983
bin	1.6732e-05	2935
bin	1.68032e-05	2969
bin	1.68744e-05	2947
bin	1.69456e-05	2888
bin	1.70168e-05	2885
bin	1.7088e-05	2836
bin	1.71592e-05	2850
bin	1.72304e-05	2729
bin	1.73016e-05	2775
bin	1.73728e-05	2787
bin	1.7444e-05	2843
bin	1.75152e-05	2681
bin	1.75864e-05	2671
bin	1.76576e-05	2622
bin	1.77288e-05	2613
bin	1.78e-05	2672
bin	1.78712e-05	2671
bin	1.79424e-05	2699
bin	1.80136e-05	2594
bin	1.80848e-05	2612
bin	1.8156e-05	2514
bin	1.82272e-05	2522
bin	1.82984e-05	2548
bin	1.83696e-05	2526
bin	1.84408e-05	2459
bin	1.8512e-05	2400
bin	1.85832e-05	2443
bin	1.86544e-05	2489
bin	1.87256e-05	2539
bin	1.87968e-05	2585
bin	1.8868e-05	2514
bin	1.89392e-05	2474
bin	1.90104e-05	2587
bin	1.90816e-05	2583
bin	1.91528e-05	2529
bin	1.9224e-05	2483
bin	1.92952e-05	2469
bin	1.93664e-05	2513
bin	1.94376e-05	2538
bin	1.95088e-05	2472
bin	1.958e-05	2479
bin	1.96512e-05	2469
bin	1.97224e-05	2551
bin	1.97936e-05	2456
bin	1.98648e-05	2458
bin	1.9936e-05	2409
bin	2.00072e-05	2400
bin	2.00784e-05	2359
bin	2.01496e-05	2334
bin	2.02208e-05	2471
bin	2.0292e-05	2424
bin	2.03632e-05	2369
bin	2.04344e-05	2377
bin	2.05056e-05	2420
bin	2.05768e-05	2454
bin	2.0648e-05	2458
bin	2.07192e-05	2367
bin	2.07904e-05	2399
bin	2.08616e-05	2478
bin	2.09328e-05	2403
bin	2.1004e-05	2437
bin	2.10752e-05	2377
bin	2.11464e-05	2334
bin	2.12176e-05	2280
bin	2.12888e-05	2300
bin	2.136e-05	2334
bin	2.14312e-05	2302
bin	2.15024e-05	2247
bin	2.15736e-05	2237
bin	2.16448e-05	2254
bin	2.1716e-05	2204
bin	2.17872e-05	2250
bin	2.18584e-05	2224
bin	2.19296e-05	2213
bin	2.20008e-05	2219
bin	2.2072e-05	2230
bin	2.21432e-05	2214
bin	2.22144e-05	2267
bin	2.22856e-05	2255
bin	2.23568e-05	2317
bin	2.2428e-05	2284
bin	2.24992e-05	2389
bin	2.25704e-05	2205
bin	2.26416e-05	2354
bin	2.27128e-05	2226
bin	2.2784e-05	2262
bin	2.28552e-05	2252
bin	2.29264e-05	2334
bin	2.29976e-05	2269
bin	2.30688e-05	2256
bin	2.314e-05	2271
bin	2.32112e-05	2255
bin	2.32824e-05	2207
bin	2.33536e-05	2183
bin	2.34248e-05	2252
bin	2.3496e-05	2254
bin	2.35672e-05	2224
bin	2.36384e-05	2278
bin	2.37096e-05	2282
bin	2.37808e-05	2203
bin	2.3852e-05	2199
bin	2.39232e-05	2181
bin	2.39944e-05	2189
bin	2.40656e-05	2201
bin	2.41368e-05	2218
bin	2.4208e-05	2272
bin	2.42792e-05	2220
bin	2.43504e-05	2166
bin	2.44216e-05	2230
bin	2.44928e-05	2159
bin	2.4564e-05	2195
bin	2.46352e-05	2326
bin	2.47064e-05	2235
bin	2.47776e-05	2199
bin	2.48488e-05	2307
bin	2.492e-05	2178
bin	2.49912e-05	2203
bin	2.50624e-05	2221
bin	2.51336e-05	2222
bin	2.52048e-05	2201
bin	2.5276e-05	2074
bin	2.53472e-05	2227
bin	2.54184e-05	2177
bin	2.54896e-05	2210
bin	2.55608e-05	2234
bin	2.5632e-05	2230
bin	2.57032e-05	2150
bin	2.57744e-05	2140
bin	2.58456e-05	2139
bin	2.59168e-05	2089
bin	2.5988e-05	2071
bin	2.60592e-05	2107
bin	2.61304e-05	2096
bin	2.62016e-05	2000
bin	2.62728e-05	1976
bin	2.6344e-05	1982
bin	2.64152e-05	1952
bin	2.64864e-05	1921
bin	2.65576e-05	1995
bin	2.66288e-05	1989
bin	2.67e-05	1925
bin	2.67712e-05	1910
bin	2.68424e-05	1986
bin	2.69136e-05	1964
bin	2.69848e-05	1973
bin	2.7056e-05	1916
bin	2.71272e-05	2014
bin	2.71984e-05	1990
bin	2.72696e-05	1951
bin	2.73408e-05	1926
bin	2.7412e-05	1896
bin	2.74832e-05	1929
bin	2.75544e-05	1955
bin	2.76256e-05	1913
bin	2.76968e-05	1926
bin	2.7768e-05	1850
bin	2.78392e-05	1942
bin	2.79104e-05	1839
bin	2.79816e-05	1877
bin	2.80528e-05	1915
bin	2.8124e-05	1978
bin	2.81952e-05	1957
bin	2.82664e-05	1906
bin	2.83376e-05	1984
bin	2.84088e-05	1966
bin	2.848e-05	1928
bin	2.85512e-05	1947
bin	2.86224e-05	1948
bin	2.86936e-05	1911
bin	2.87648e-05	1819
bin	2.8836e-05	1871
bin	2.89072e-05	1980
bin	2.89784e-05	1943
bin	2.90496e-05	1938
bin	2.91208e-05	1964
bin	2.9192e-05	1898
bin	2.92632e-05	1858
bin	2.93344e-05	1816
bin	2.94056e-05	1898
bin	2.94768e-05	1899
bin	2.9548e-05	1906
bin	2.96192e-05	1842
bin	2.96904e-05	1866
bin	2.97616e-05	1835
bin	2.98328e-05	1834
bin	2.9904e-05	1819
bin	2.99752e-05	1847
bin	3.00464e-05	1847
bin	3.01176e-05	1820
bin	3.01888e-05	1864
bin	3.026e-05	1854
bin	3.03312e-05	1831
bin	3.04024e-05	1828
bin	3.04736e-05	1862
bin	3.05448e-05	1806
bin	3.0616e-05	1833
bin	3.06872e-05	1914
bin	3.07584e-05	1889
bin	3.08296e-05	1901
bin	3.09008e-05	1832
bin	3.0972e-05	1894
bin	3.10432e-05	1896
bin	3.11144e-05	1894
bin	3.11856e-05	1829
bin	3.12568e-05	1827
bin	3.1328e-05	1846
bin	3.13992e-05	1901
bin	3.14704e-05	1906
bin	3.15416e-05	1958
bin	3.16128e-05	1942
bin	3.1684e-05	1827
bin	3.17552e-05	1909
bin	3.18264e-05	1897
bin	3.18976e-05	1914
bin	3.19688e-05	1887
bin	3.204e-05	1972
bin	3.21112e-05	1938
bin	3.21824e-05	1880
bin	3.22536e-05	1938
bin	3.23248e-05	1868
bin	3.2396e-05	1968
bin	3.24672e-05	1933
bin	3.25384e-05	1959
bin	3.26096e-05	1925
bin	3.26808e-05	1953
bin	3.2752e-05	1902
bin	3.28232e-05	1901
bin	3.28944e-05	1911
bin	3.29656e-05	1881
bin	3.30368e-05	1888
bin	3.3108e-05	1841
bin	3.31792e-05	1937
bin	3.32504e-05	1953
bin	3.33216e-05	1876
bin	3.33928e-05	1841
bin	3.3464e-05	1927
bin	3.35352e-05	1822
bin	3.36064e-05	1857
bin	3.36776e-05	1866
bin	3.37488e-05	1811
bin	3.382e-05	1903
bin	3.38912e-05	1914
bin	3.39624e-05	1890
bin	3.40336e-05	1902
bin	3.41048e-05	1885
bin	3.4176e-05	1870
bin	3.42472e-05	1799
bin	3.43184e-05	1876
bin	3.43896e-05	1899
bin	3.44608e-05	1869
bin	3.4532e-05	1840
bin	3.46032e-05	1990
bin	3.46744e-05	1857
bin	3.47456e-05	1836
bin	3.48168e-05	1865
bin	3.4888e-05	1893
bin	3.49592e-05	1740
bin	3.50304e-05	1774
bin	3.51016e-05	1803
bin	3.51728e-05	1832
bin	3.5244e-05	1874
bin	3.53152e-05	1883
bin	3.53864e-05	1821
bin	3.54576e-05	1796
bin	3.55288e-05	1829
bin	3.56e-05	2340769
statistic Torus3d_bub.timer 	"Life Times"
field count 6291456
field mean 0.00045207633397319
field stddev 0.00055013734537922
field sum 2844.2183638337
field sqrsum 3.1899195796217
field min 1.64e-07
field max 0.002890685
bin	-INF	0
bin	0	6208
bin	8.544e-07	8192
bin	1.7088e-06	9878
bin	2.5632e-06	12356
bin	3.4176e-06	14917
bin	4.272e-06	17536
bin	5.1264e-06	20474
bin	5.9808e-06	23434
bin	6.8352e-06	26653
bin	7.6896e-06	30100
bin	8.544e-06	33220
bin	9.3984e-06	35865
bin	1.02528e-05	32237
bin	1.11072e-05	32884
bin	1.19616e-05	34773
bin	1.2816e-05	36321
bin	1.36704e-05	38165
bin	1.45248e-05	39691
bin	1.53792e-05	41191
bin	1.62336e-05	42945
bin	1.7088e-05	44478
bin	1.79424e-05	45591
bin	1.87968e-05	47109
bin	1.96512e-05	48715
bin	2.05056e-05	51117
bin	2.136e-05	52498
bin	2.22144e-05	54394
bin	2.30688e-05	55667
bin	2.39232e-05	58283
bin	2.47776e-05	60030
bin	2.5632e-05	61579
bin	2.64864e-05	62678
bin	2.73408e-05	63391
bin	2.81952e-05	63456
bin	2.90496e-05	62717
bin	2.9904e-05	62030
bin	3.07584e-05	61580
bin	3.16128e-05	60108
bin	3.24672e-05	58860
bin	3.33216e-05	57181
bin	3.4176e-05	56194
bin	3.50304e-05	54610
bin	3.58848e-05	53405
bin	3.67392e-05	52079
bin	3.75936e-05	50727
bin	3.8448e-05	49535
bin	3.93024e-05	48702
bin	4.01568e-05	46977
bin	4.10112e-05	45954
bin	4.18656e-05	43635
bin	4.272e-05	40877
bin	4.35744e-05	37859
bin	4.44288e-05	34960
bin	4.52832e-05	32354
bin	4.61376e-05	29556
bin	4.6992e-05	26936
bin	4.78464e-05	24792
bin	4.87008e-05	22488
bin	4.95552e-05	20521
bin	5.04096e-05	18826
bin	5.1264e-05	17090
bin	5.21184e-05	15840
bin	5.29728e-05	14731
bin	5.38272e-05	13927
bin	5.46816e-05	13144
bin	5.5536e-05	12462
bin	5.63904e-05	11800
bin	5.72448e-05	11515
bin	5.80992e-05	10857
bin	5.89536e-05	10664
bin	5.9808e-05	10322
bin	6.06624e-05	10124
bin	6.15168e-05	9854
bin	6.23712e-05	9742
bin	6.32256e-05	9646
bin	6.408e-05	9483
bin	6.49344e-05	9261
bin	6.57888e-05	9330
bin	6.66432e-05	9056
bin	6.74976e-05	9009
bin	6.8352e-05	8990
bin	6.92064e-05	8913
bin	7.00608e-05	8951
bin	7.09152e-05	8873
bin	7.17696e-05	8765
bin	7.2624e-05	8922
bin	7.34784e-05	8936
bin	7.43328e-05	9026
bin	7.51872e-05	8835
bin	7.60416e-05	8887
bin	7.6896e-05	8916
bin	7.77504e-05	9016
bin	7.86048e-05	8815
bin	7.94592e-05	9123
bin	8.03136e-05	9119
bin	8.1168e-05	9173
bin	8.20224e-05	9301
bin	8.28768e-05	9431
bin	8.37312e-05	9387
bin	8.45856e-05	9277
bin	8.544e-05	9130
bin	8.62944e-05	8910
bin	8.71488e-05	8518
bin	8.80032e-05	8197
bin	8.88576e-05	7853
bin	8.9712e-05	7447
bin	9.05664e-05	7215
bin	9.14208e-05	7012
bin	9.22752e-05	6566
bin	9.31296e-05	6385
bin	9.3984e-05	6163
bin	9.48384e-05	5867
bin	9.56928e-05	5754
bin	9.65472e-05	5665
bin	9.74016e-05	5521
bin	9.8256e-05	5449
bin	9.91104e-05	5334
bin	9.99648e-05	5166
bin	0.0001008192	5146
bin	0.0001016736	5152
bin	0.000102528	5084
bin	0.0001033824	5076
bin	0.0001042368	4966
bin	0.0001050912	4946
bin	0.0001059456	4961
bin	0.0001068	4879
bin	0.0001076544	4810
bin	0.0001085088	4900
bin	0.0001093632	4842
bin	0.0001102176	5003
bin	0.000111072	4932
bin	0.0001119264	4946
bin	0.0001127808	4885
bin	0.0001136352	4907
bin	0.0001144896	4999
bin	0.000115344	4943
bin	0.0001161984	5022
bin	0.0001170528	4870
bin	0.0001179072	4876
bin	0.0001187616	4878
bin	0.000119616	5006
bin	0.0001204704	5031
bin	0.0001213248	4977
bin	0.0001221792	4969
bin	0.0001230336	5085
bin	0.000123888	5126
bin	0.0001247424	5065
bin	0.0001255968	5094
bin	0.0001264512	5136
bin	0.0001273056	5009
bin	0.00012816	5035
bin	0.0001290144	4758
bin	0.0001298688	4514
bin	0.0001307232	4457
bin	0.0001315776	4477
bin	0.000132432	4191
bin	0.0001332864	4136
bin	0.0001341408	3999
bin	0.0001349952	3831
bin	0.0001358496	3755
bin	0.000136704	3718
bin	0.0001375584	3652
bin	0.0001384128	3660
bin	0.0001392672	3640
bin	0.0001401216	3653
bin	0.000140976	3525
bin	0.0001418304	3500
bin	0.0001426848	3419
bin	0.0001435392	3445
bin	0.0001443936	3465
bin	0.000145248	3319
bin	0.0001461024	3428
bin	0.0001469568	3414
bin	0.0001478112	3420
bin	0.0001486656	3381
bin	0.00014952	3473
bin	0.0001503744	3454
bin	0.0001512288	3435
bin	0.0001520832	3517
bin	0.0001529376	3401
bin	0.000153792	3452
bin	0.0001546464	3488
bin	0.0001555008	3522
bin	0.0001563552	3587
bin	0.0001572096	3581
bin	0.000158064	3613
bin	0.0001589184	3582
bin	0.0001597728	3546
bin	0.0001606272	3531
bin	0.0001614816	3703
bin	0.000162336	3801
bin	0.0001631904	3691
bin	0.0001640448	3656
bin	0.0001648992	3704
bin	0.0001657536	3667
bin	0.000166608	3813
bin	0.0001674624	3634
bin	0.0001683168	3633
bin	0.0001691712	3471
bin	0.0001700256	3428
bin	0.00017088	3343
bin	0.0001717344	3254
bin	0.0001725888	3236
bin	0.0001734432	3097
bin	0.0001742976	3112
bin	0.000175152	3009
bin	0.0001760064	2935
bin	0.0001768608	2983
bin	0.0001777152	2914
bin	0.0001785696	2915
bin	0.000179424	2901
bin	0.0001802784	2818
bin	0.0001811328	2753
bin	0.0001819872	2695
bin	0.0001828416	2763
bin	0.000183696	2755
bin	0.0001845504	2710
bin	0.0001854048	2719
bin	0.0001862592	2725
bin	0.0001871136	2730
bin	0.000187968	2672
bin	0.0001888224	2736
bin	0.0001896768	2764
bin	0.0001905312	2773
bin	0.0001913856	2687
bin	0.00019224	2735
bin	0.0001930944	2804
bin	0.0001939488	2792
bin	0.0001948032	2786
bin	0.0001956576	2799
bin	0.000196512	2813
bin	0.0001973664	2837
bin	0.0001982208	2879
bin	0.0001990752	2876
bin	0.0001999296	2873
bin	0.000200784	2909
bin	0.0002016384	2897
bin	0.0002024928	2915
bin	0.0002033472	2876
bin	0.0002042016	2831
bin	0.000205056	2958
bin	0.0002059104	2955
bin	0.0002067648	2984
bin	0.0002076192	2926
bin	0.0002084736	2923
bin	0.000209328	2858
bin	0.0002101824	2831
bin	0.0002110368	2704
bin	0.0002118912	2737
bin	0.0002127456	2667
bin	0.0002136	2633
bin	0.0002144544	2567
bin	0.0002153088	2504
bin	0.0002161632	2527
bin	0.0002170176	2509
bin	0.000217872	2485
bin	0.0002187264	2465
bin	0.0002195808	2415
bin	0.0002204352	2380
bin	0.0002212896	2399
bin	0.000222144	2403
bin	0.0002229984	2366
bin	0.0002238528	2358
bin	0.0002247072	2355
bin	0.0002255616	2346
bin	0.000226416	2417
bin	0.0002272704	2323
bin	0.0002281248	2371
bin	0.0002289792	2321
bin	0.0002298336	2314
bin	0.000230688	2310
bin	0.0002315424	2315
bin	0.0002323968	2245
bin	0.0002332512	2300
bin	0.0002341056	2255
bin	0.00023496	2331
bin	0.0002358144	2417
bin	0.0002366688	2383
bin	0.0002375232	2378
bin	0.0002383776	2414
bin	0.000239232	2440
bin	0.0002400864	2453
bin	0.0002409408	2537
bin	0.0002417952	2461
bin	0.0002426496	2517
bin	0.000243504	2475
bin	0.0002443584	2515
bin	0.0002452128	2494
bin	0.0002460672	2539
bin	0.0002469216	2567
bin	0.000247776	2562
bin	0.0002486304	2634
bin	0.0002494848	2559
bin	0.0002503392	2499
bin	0.0002511936	2470
bin	0.000252048	2559
bin	0.0002529024	2455
bin	0.0002537568	2406
bin	0.0002546112	2390
bin	0.0002554656	2457
bin	0.00025632	2409
bin	0.0002571744	2278
bin	0.0002580288	2267
bin	0.0002588832	2236
bin	0.0002597376	2165
bin	0.000260592	2262
bin	0.0002614464	2236
bin	0.0002623008	2141
bin	0.0002631552	2116
bin	0.0002640096	2093
bin	0.000264864	2108
bin	0.0002657184	2097
bin	0.0002665728	2041
bin	0.0002674272	2139
bin	0.0002682816	2139
bin	0.000269136	2059
bin	0.0002699904	2097
bin	0.0002708448	2140
bin	0.0002716992	1978
bin	0.0002725536	2101
bin	0.000273408	2176
bin	0.0002742624	2031
bin	0.0002751168	2101
bin	0.0002759712	2158
bin	0.0002768256	2083
bin	0.00027768	2123
bin	0.0002785344	2040
bin	0.0002793888	2028
bin	0.0002802432	2108
bin	0.0002810976	2143
bin	0.000281952	2214
bin	0.0002828064	2180
bin	0.0002836608	2261
bin	0.0002845152	2277
bin	0.0002853696	2214
bin	0.000286224	2218
bin	0.0002870784	2308
bin	0.0002879328	2256
bin	0.0002887872	2275
bin	0.0002896416	2303
bin	0.000290496	2363
bin	0.0002913504	2225
bin	0.0002922048	2228
bin	0.0002930592	2261
bin	0.0002939136	2197
bin	0.000294768	2189
bin	0.0002956224	2182
bin	0.0002964768	2115
bin	0.0002973312	1989
bin	0.0002981856	1991
bin	0.00029904	2069
bin	0.0002998944	2021
bin	0.0003007488	1979
bin	0.0003016032	1936
bin	0.0003024576	1931
bin	0.000303312	1857
bin	0.0003041664	2019
bin	0.0003050208	1872
bin	0.0003058752	2022
bin	0.0003067296	1829
bin	0.000307584	1896
bin	0.0003084384	1958
bin	0.0003092928	1979
bin	0.0003101472	1846
bin	0.0003110016	1905
bin	0.000311856	1855
bin	0.0003127104	1955
bin	0.0003135648	1926
bin	0.0003144192	2012
bin	0.0003152736	1958
bin	0.000316128	2034
bin	0.0003169824	1966
bin	0.0003178368	2030
bin	0.0003186912	2022
bin	0.0003195456	1981
bin	0.0003204	2179
bin	0.0003212544	2042
bin	0.0003221088	2066
bin	0.0003229632	2100
bin	0.0003238176	2096
bin	0.000324672	1999
bin	0.0003255264	2003
bin	0.0003263808	2142
bin	0.0003272352	2101
bin	0.0003280896	2095
bin	0.000328944	2124
bin	0.0003297984	2153
bin	0.0003306528	2147
bin	0.0003315072	2122
bin	0.0003323616	2163
bin	0.000333216	2122
bin	0.0003340704	2124
bin	0.0003349248	2019
bin	0.0003357792	2055
bin	0.0003366336	2032
bin	0.000337488	1979
bin	0.0003383424	2003
bin	0.0003391968	2017
bin	0.0003400512	1982
bin	0.0003409056	1923
bin	0.00034176	1938
bin	0.0003426144	1860
bin	0.0003434688	1843
bin	0.0003443232	1855
bin	0.0003451776	1822
bin	0.000346032	1894
bin	0.0003468864	1826
bin	0.0003477408	1841
bin	0.0003485952	1815
bin	0.0003494496	1788
bin	0.000350304	1786
bin	0.0003511584	1813
bin	0.0003520128	1920
bin	0.0003528672	1848
bin	0.0003537216	1965
bin	0.000354576	1851
bin	0.0003554304	1845
bin	0.0003562848	1886
bin	0.0003571392	1837
bin	0.0003579936	1888
bin	0.000358848	1930
bin	0.0003597024	1866
bin	0.0003605568	1863
bin	0.0003614112	1874
bin	0.0003622656	1971
bin	0.00036312	1877
bin	0.0003639744	1848
bin	0.0003648288	1908
bin	0.0003656832	1920
bin	0.0003665376	2002
bin	0.000367392	2031
bin	0.0003682464	2012
bin	0.0003691008	2043
bin	0.0003699552	2119
bin	0.0003708096	2024
bin	0.000371664	2061
bin	0.0003725184	2051
bin	0.0003733728	1960
bin	0.0003742272	1957
bin	0.0003750816	1997
bin	0.000375936	1905
bin	0.0003767904	1847
bin	0.0003776448	1858
bin	0.0003784992	1846
bin	0.0003793536	1825
bin	0.000380208	1782
bin	0.0003810624	1815
bin	0.0003819168	1818
bin	0.0003827712	1796
bin	0.0003836256	1850
bin	0.00038448	1704
bin	0.0003853344	1804
bin	0.0003861888	1751
bin	0.0003870432	1728
bin	0.0003878976	1709
bin	0.000388752	1772
bin	0.0003896064	1773
bin	0.0003904608	1812
bin	0.0003913152	1741
bin	0.0003921696	1703
bin	0.000393024	1708
bin	0.0003938784	1695
bin	0.0003947328	1740
bin	0.0003955872	1726
bin	0.0003964416	1816
bin	0.000397296	1702
bin	0.0003981504	1739
bin	0.0003990048	1823
bin	0.0003998592	1836
bin	0.0004007136	1812
bin	0.000401568	1796
bin	0.0004024224	1745
bin	0.0004032768	1832
bin	0.0004041312	1789
bin	0.0004049856	1805
bin	0.00040584	1864
bin	0.0004066944	1847
bin	0.0004075488	1868
bin	0.0004084032	1838
bin	0.0004092576	1870
bin	0.000410112	1842
bin	0.0004109664	1900
bin	0.0004118208	1807
bin	0.0004126752	1887
bin	0.0004135296	1850
bin	0.000414384	1798
bin	0.0004152384	1808
bin	0.0004160928	1835
bin	0.0004169472	1799
bin	0.0004178016	1789
bin	0.000418656	1792
bin	0.0004195104	1778
bin	0.0004203648	1686
bin	0.0004212192	1839
bin	0.0004220736	1821
bin	0.000422928	1822
bin	0.0004237824	1839
bin	0.0004246368	1740
bin	0.0004254912	1810
bin	0.0004263456	1725
bin	0.0004272	2298370
