version 2
run Transposition-76-20120710-19:01:27-28033
attr alg 0
attr buf 8
attr configname Transposition
attr datetime 20120710-19:01:27
attr delta 1
attr experiment Transposition
attr ext false
attr inifile altro.ini
attr iterationvars "$buf=8, $ext=false, $ofedge=2, $delta=1, $alg=0"
attr iterationvars2 "$buf=8, $ext=false, $ofedge=2, $delta=1, $alg=0, $repetition=0"
attr measurement "$buf=8, $ext=false, $ofedge=2, $delta=1, $alg=0"
attr network Torus3d_bub
attr ofedge 2
attr processid 28033
attr repetition 0
attr replication #0
attr resultdir altro-results
attr runnumber 76
attr seedset 76

scalar . 	alg 	0
scalar . 	buf 	8
scalar . 	delta 	1
scalar . 	ofedge 	2
scalar Torus3d_bub.timer 	#endTime 	0.004060874666666
scalar Torus3d_bub.timer 	#totalHops 	75497472
scalar Torus3d_bub.timer 	#totalPacks 	6291456
scalar Torus3d_bub.timer 	#totalDerouted 	0
scalar Torus3d_bub.timer 	#totalOutFlanked 	0
scalar Torus3d_bub.timer 	#totalCQRed 	0
scalar Torus3d_bub.timer 	#LB 	0.000786432
scalar Torus3d_bub.timer 	#ratio 	0.1936607417253
statistic Torus3d_bub.timer 	"Hop Times"
field count 6193152
field mean 0.00010982791898461
field stddev 8.2350745818233e-05
field sum 680.18099611537
field sqrsum 0.1167026169356
field min 3.74222222e-07
field max 0.000773749
bin	-INF	0
bin	0	0
bin	7.12e-08	0
bin	1.424e-07	0
bin	2.136e-07	0
bin	2.848e-07	0
bin	3.56e-07	276
bin	4.272e-07	1048
bin	4.984e-07	1634
bin	5.696e-07	2564
bin	6.408e-07	3378
bin	7.12e-07	4148
bin	7.832e-07	4784
bin	8.544e-07	5208
bin	9.256e-07	5992
bin	9.968e-07	6665
bin	1.068e-06	7268
bin	1.1392e-06	7976
bin	1.2104e-06	8848
bin	1.2816e-06	9695
bin	1.3528e-06	10855
bin	1.424e-06	11604
bin	1.4952e-06	12521
bin	1.5664e-06	13105
bin	1.6376e-06	13861
bin	1.7088e-06	14011
bin	1.78e-06	14352
bin	1.8512e-06	14933
bin	1.9224e-06	14719
bin	1.9936e-06	14930
bin	2.0648e-06	14581
bin	2.136e-06	14306
bin	2.2072e-06	14119
bin	2.2784e-06	13866
bin	2.3496e-06	13420
bin	2.4208e-06	13142
bin	2.492e-06	12893
bin	2.5632e-06	12467
bin	2.6344e-06	12162
bin	2.7056e-06	11833
bin	2.7768e-06	11520
bin	2.848e-06	11089
bin	2.9192e-06	10698
bin	2.9904e-06	10468
bin	3.0616e-06	10073
bin	3.1328e-06	9902
bin	3.204e-06	9583
bin	3.2752e-06	9389
bin	3.3464e-06	9073
bin	3.4176e-06	8837
bin	3.4888e-06	8504
bin	3.56e-06	8386
bin	3.6312e-06	7953
bin	3.7024e-06	7794
bin	3.7736e-06	7593
bin	3.8448e-06	7372
bin	3.916e-06	7177
bin	3.9872e-06	7119
bin	4.0584e-06	6882
bin	4.1296e-06	6815
bin	4.2008e-06	6665
bin	4.272e-06	6485
bin	4.3432e-06	6263
bin	4.4144e-06	6128
bin	4.4856e-06	5980
bin	4.5568e-06	5785
bin	4.628e-06	5869
bin	4.6992e-06	5774
bin	4.7704e-06	5572
bin	4.8416e-06	5583
bin	4.9128e-06	5459
bin	4.984e-06	5433
bin	5.0552e-06	5378
bin	5.1264e-06	5244
bin	5.1976e-06	5202
bin	5.2688e-06	5017
bin	5.34e-06	4939
bin	5.4112e-06	4825
bin	5.4824e-06	4698
bin	5.5536e-06	4678
bin	5.6248e-06	4584
bin	5.696e-06	4475
bin	5.7672e-06	4419
bin	5.8384e-06	4415
bin	5.9096e-06	4309
bin	5.9808e-06	4145
bin	6.052e-06	4157
bin	6.1232e-06	4073
bin	6.1944e-06	4012
bin	6.2656e-06	3998
bin	6.3368e-06	3948
bin	6.408e-06	3814
bin	6.4792e-06	3879
bin	6.5504e-06	3821
bin	6.6216e-06	3739
bin	6.6928e-06	3650
bin	6.764e-06	3644
bin	6.8352e-06	3689
bin	6.9064e-06	3536
bin	6.9776e-06	3535
bin	7.0488e-06	3475
bin	7.12e-06	3385
bin	7.1912e-06	3362
bin	7.2624e-06	3386
bin	7.3336e-06	3413
bin	7.4048e-06	3437
bin	7.476e-06	3506
bin	7.5472e-06	3403
bin	7.6184e-06	3360
bin	7.6896e-06	3458
bin	7.7608e-06	3423
bin	7.832e-06	3381
bin	7.9032e-06	3263
bin	7.9744e-06	3302
bin	8.0456e-06	3339
bin	8.1168e-06	3251
bin	8.188e-06	3268
bin	8.2592e-06	3225
bin	8.3304e-06	3082
bin	8.4016e-06	3156
bin	8.4728e-06	3100
bin	8.544e-06	3133
bin	8.6152e-06	3144
bin	8.6864e-06	3110
bin	8.7576e-06	3121
bin	8.8288e-06	3110
bin	8.9e-06	3040
bin	8.9712e-06	3026
bin	9.0424e-06	3034
bin	9.1136e-06	3022
bin	9.1848e-06	2993
bin	9.256e-06	3081
bin	9.3272e-06	3006
bin	9.3984e-06	2963
bin	9.4696e-06	3002
bin	9.5408e-06	2961
bin	9.612e-06	2927
bin	9.6832e-06	2947
bin	9.7544e-06	2902
bin	9.8256e-06	2824
bin	9.8968e-06	2915
bin	9.968e-06	2891
bin	1.00392e-05	2908
bin	1.01104e-05	2865
bin	1.01816e-05	2837
bin	1.02528e-05	2849
bin	1.0324e-05	2776
bin	1.03952e-05	2711
bin	1.04664e-05	2788
bin	1.05376e-05	2770
bin	1.06088e-05	2762
bin	1.068e-05	2711
bin	1.07512e-05	2727
bin	1.08224e-05	2705
bin	1.08936e-05	2717
bin	1.09648e-05	2714
bin	1.1036e-05	2765
bin	1.11072e-05	2800
bin	1.11784e-05	2720
bin	1.12496e-05	2689
bin	1.13208e-05	2609
bin	1.1392e-05	2685
bin	1.14632e-05	2634
bin	1.15344e-05	2632
bin	1.16056e-05	2616
bin	1.16768e-05	2640
bin	1.1748e-05	2651
bin	1.18192e-05	2615
bin	1.18904e-05	2586
bin	1.19616e-05	2525
bin	1.20328e-05	2478
bin	1.2104e-05	2591
bin	1.21752e-05	2495
bin	1.22464e-05	2519
bin	1.23176e-05	2456
bin	1.23888e-05	2508
bin	1.246e-05	2513
bin	1.25312e-05	2615
bin	1.26024e-05	2463
bin	1.26736e-05	2554
bin	1.27448e-05	2383
bin	1.2816e-05	2469
bin	1.28872e-05	2496
bin	1.29584e-05	2433
bin	1.30296e-05	2446
bin	1.31008e-05	2426
bin	1.3172e-05	2375
bin	1.32432e-05	2363
bin	1.33144e-05	2317
bin	1.33856e-05	2348
bin	1.34568e-05	2352
bin	1.3528e-05	2238
bin	1.35992e-05	2278
bin	1.36704e-05	2326
bin	1.37416e-05	2306
bin	1.38128e-05	2165
bin	1.3884e-05	2175
bin	1.39552e-05	2174
bin	1.40264e-05	2168
bin	1.40976e-05	2275
bin	1.41688e-05	2247
bin	1.424e-05	2282
bin	1.43112e-05	2187
bin	1.43824e-05	2213
bin	1.44536e-05	2240
bin	1.45248e-05	2280
bin	1.4596e-05	2314
bin	1.46672e-05	2278
bin	1.47384e-05	2204
bin	1.48096e-05	2222
bin	1.48808e-05	2207
bin	1.4952e-05	2270
bin	1.50232e-05	2136
bin	1.50944e-05	2188
bin	1.51656e-05	2135
bin	1.52368e-05	2090
bin	1.5308e-05	2157
bin	1.53792e-05	2212
bin	1.54504e-05	2264
bin	1.55216e-05	2232
bin	1.55928e-05	2071
bin	1.5664e-05	2174
bin	1.57352e-05	2097
bin	1.58064e-05	2160
bin	1.58776e-05	2158
bin	1.59488e-05	2074
bin	1.602e-05	2008
bin	1.60912e-05	2074
bin	1.61624e-05	2007
bin	1.62336e-05	2100
bin	1.63048e-05	2071
bin	1.6376e-05	1988
bin	1.64472e-05	2016
bin	1.65184e-05	2004
bin	1.65896e-05	1928
bin	1.66608e-05	1914
bin	1.6732e-05	1968
bin	1.68032e-05	1978
bin	1.68744e-05	1931
bin	1.69456e-05	1944
bin	1.70168e-05	1954
bin	1.7088e-05	1956
bin	1.71592e-05	1992
bin	1.72304e-05	1896
bin	1.73016e-05	1966
bin	1.73728e-05	1984
bin	1.7444e-05	1932
bin	1.75152e-05	1933
bin	1.75864e-05	1950
bin	1.76576e-05	1838
bin	1.77288e-05	1842
bin	1.78e-05	1910
bin	1.78712e-05	1855
bin	1.79424e-05	1883
bin	1.80136e-05	1896
bin	1.80848e-05	1830
bin	1.8156e-05	1890
bin	1.82272e-05	1910
bin	1.82984e-05	1875
bin	1.83696e-05	1919
bin	1.84408e-05	1965
bin	1.8512e-05	1897
bin	1.85832e-05	1927
bin	1.86544e-05	1884
bin	1.87256e-05	1919
bin	1.87968e-05	1879
bin	1.8868e-05	1918
bin	1.89392e-05	1888
bin	1.90104e-05	1823
bin	1.90816e-05	1791
bin	1.91528e-05	1894
bin	1.9224e-05	1853
bin	1.92952e-05	1871
bin	1.93664e-05	1869
bin	1.94376e-05	1895
bin	1.95088e-05	1864
bin	1.958e-05	1899
bin	1.96512e-05	1936
bin	1.97224e-05	1892
bin	1.97936e-05	1885
bin	1.98648e-05	1893
bin	1.9936e-05	1944
bin	2.00072e-05	1854
bin	2.00784e-05	1900
bin	2.01496e-05	1838
bin	2.02208e-05	1824
bin	2.0292e-05	1862
bin	2.03632e-05	1862
bin	2.04344e-05	1864
bin	2.05056e-05	1951
bin	2.05768e-05	1815
bin	2.0648e-05	1848
bin	2.07192e-05	1856
bin	2.07904e-05	1858
bin	2.08616e-05	1781
bin	2.09328e-05	1801
bin	2.1004e-05	1750
bin	2.10752e-05	1796
bin	2.11464e-05	1744
bin	2.12176e-05	1702
bin	2.12888e-05	1791
bin	2.136e-05	1745
bin	2.14312e-05	1796
bin	2.15024e-05	1753
bin	2.15736e-05	1746
bin	2.16448e-05	1783
bin	2.1716e-05	1779
bin	2.17872e-05	1738
bin	2.18584e-05	1713
bin	2.19296e-05	1655
bin	2.20008e-05	1646
bin	2.2072e-05	1661
bin	2.21432e-05	1650
bin	2.22144e-05	1678
bin	2.22856e-05	1671
bin	2.23568e-05	1593
bin	2.2428e-05	1609
bin	2.24992e-05	1537
bin	2.25704e-05	1580
bin	2.26416e-05	1558
bin	2.27128e-05	1517
bin	2.2784e-05	1588
bin	2.28552e-05	1626
bin	2.29264e-05	1576
bin	2.29976e-05	1528
bin	2.30688e-05	1668
bin	2.314e-05	1537
bin	2.32112e-05	1549
bin	2.32824e-05	1567
bin	2.33536e-05	1597
bin	2.34248e-05	1632
bin	2.3496e-05	1544
bin	2.35672e-05	1609
bin	2.36384e-05	1562
bin	2.37096e-05	1626
bin	2.37808e-05	1541
bin	2.3852e-05	1606
bin	2.39232e-05	1472
bin	2.39944e-05	1564
bin	2.40656e-05	1599
bin	2.41368e-05	1566
bin	2.4208e-05	1538
bin	2.42792e-05	1529
bin	2.43504e-05	1591
bin	2.44216e-05	1571
bin	2.44928e-05	1566
bin	2.4564e-05	1642
bin	2.46352e-05	1614
bin	2.47064e-05	1618
bin	2.47776e-05	1554
bin	2.48488e-05	1605
bin	2.492e-05	1568
bin	2.49912e-05	1572
bin	2.50624e-05	1587
bin	2.51336e-05	1577
bin	2.52048e-05	1647
bin	2.5276e-05	1581
bin	2.53472e-05	1593
bin	2.54184e-05	1575
bin	2.54896e-05	1599
bin	2.55608e-05	1619
bin	2.5632e-05	1588
bin	2.57032e-05	1556
bin	2.57744e-05	1563
bin	2.58456e-05	1595
bin	2.59168e-05	1545
bin	2.5988e-05	1480
bin	2.60592e-05	1571
bin	2.61304e-05	1545
bin	2.62016e-05	1569
bin	2.62728e-05	1553
bin	2.6344e-05	1541
bin	2.64152e-05	1551
bin	2.64864e-05	1602
bin	2.65576e-05	1575
bin	2.66288e-05	1582
bin	2.67e-05	1639
bin	2.67712e-05	1586
bin	2.68424e-05	1601
bin	2.69136e-05	1563
bin	2.69848e-05	1557
bin	2.7056e-05	1574
bin	2.71272e-05	1617
bin	2.71984e-05	1585
bin	2.72696e-05	1544
bin	2.73408e-05	1598
bin	2.7412e-05	1583
bin	2.74832e-05	1569
bin	2.75544e-05	1597
bin	2.76256e-05	1528
bin	2.76968e-05	1561
bin	2.7768e-05	1536
bin	2.78392e-05	1462
bin	2.79104e-05	1559
bin	2.79816e-05	1491
bin	2.80528e-05	1536
bin	2.8124e-05	1504
bin	2.81952e-05	1511
bin	2.82664e-05	1546
bin	2.83376e-05	1418
bin	2.84088e-05	1424
bin	2.848e-05	1386
bin	2.85512e-05	1435
bin	2.86224e-05	1413
bin	2.86936e-05	1459
bin	2.87648e-05	1510
bin	2.8836e-05	1451
bin	2.89072e-05	1447
bin	2.89784e-05	1478
bin	2.90496e-05	1472
bin	2.91208e-05	1450
bin	2.9192e-05	1401
bin	2.92632e-05	1455
bin	2.93344e-05	1384
bin	2.94056e-05	1444
bin	2.94768e-05	1374
bin	2.9548e-05	1422
bin	2.96192e-05	1392
bin	2.96904e-05	1492
bin	2.97616e-05	1439
bin	2.98328e-05	1414
bin	2.9904e-05	1429
bin	2.99752e-05	1455
bin	3.00464e-05	1456
bin	3.01176e-05	1487
bin	3.01888e-05	1446
bin	3.026e-05	1505
bin	3.03312e-05	1372
bin	3.04024e-05	1407
bin	3.04736e-05	1447
bin	3.05448e-05	1419
bin	3.0616e-05	1420
bin	3.06872e-05	1383
bin	3.07584e-05	1426
bin	3.08296e-05	1423
bin	3.09008e-05	1372
bin	3.0972e-05	1372
bin	3.10432e-05	1395
bin	3.11144e-05	1319
bin	3.11856e-05	1342
bin	3.12568e-05	1384
bin	3.1328e-05	1343
bin	3.13992e-05	1398
bin	3.14704e-05	1382
bin	3.15416e-05	1418
bin	3.16128e-05	1389
bin	3.1684e-05	1421
bin	3.17552e-05	1415
bin	3.18264e-05	1421
bin	3.18976e-05	1429
bin	3.19688e-05	1345
bin	3.204e-05	1431
bin	3.21112e-05	1379
bin	3.21824e-05	1363
bin	3.22536e-05	1407
bin	3.23248e-05	1367
bin	3.2396e-05	1362
bin	3.24672e-05	1399
bin	3.25384e-05	1416
bin	3.26096e-05	1338
bin	3.26808e-05	1386
bin	3.2752e-05	1346
bin	3.28232e-05	1326
bin	3.28944e-05	1329
bin	3.29656e-05	1285
bin	3.30368e-05	1421
bin	3.3108e-05	1350
bin	3.31792e-05	1368
bin	3.32504e-05	1361
bin	3.33216e-05	1311
bin	3.33928e-05	1375
bin	3.3464e-05	1393
bin	3.35352e-05	1346
bin	3.36064e-05	1366
bin	3.36776e-05	1379
bin	3.37488e-05	1387
bin	3.382e-05	1434
bin	3.38912e-05	1343
bin	3.39624e-05	1341
bin	3.40336e-05	1326
bin	3.41048e-05	1344
bin	3.4176e-05	1361
bin	3.42472e-05	1334
bin	3.43184e-05	1302
bin	3.43896e-05	1362
bin	3.44608e-05	1321
bin	3.4532e-05	1297
bin	3.46032e-05	1273
bin	3.46744e-05	1351
bin	3.47456e-05	1344
bin	3.48168e-05	1306
bin	3.4888e-05	1376
bin	3.49592e-05	1391
bin	3.50304e-05	1391
bin	3.51016e-05	1370
bin	3.51728e-05	1321
bin	3.5244e-05	1401
bin	3.53152e-05	1311
bin	3.53864e-05	1356
bin	3.54576e-05	1300
bin	3.55288e-05	1304
bin	3.56e-05	4711081
statistic Torus3d_bub.timer 	"Life Times"
field count 6291456
field mean 0.0012951985586199
field stddev 0.00096676959747923
field sum 8148.6847428207
field sqrsum 16.434431969274
field min 1.64e-07
field max 0.004054195666666
bin	-INF	0
bin	0	6592
bin	8.544e-07	8192
bin	1.7088e-06	8757
bin	2.5632e-06	9096
bin	3.4176e-06	9743
bin	4.272e-06	10501
bin	5.1264e-06	11419
bin	5.9808e-06	12425
bin	6.8352e-06	13550
bin	7.6896e-06	14456
bin	8.544e-06	15551
bin	9.3984e-06	16852
bin	1.02528e-05	11361
bin	1.11072e-05	10689
bin	1.19616e-05	11440
bin	1.2816e-05	11881
bin	1.36704e-05	12629
bin	1.45248e-05	13312
bin	1.53792e-05	13716
bin	1.62336e-05	14349
bin	1.7088e-05	14512
bin	1.79424e-05	14909
bin	1.87968e-05	15205
bin	1.96512e-05	15627
bin	2.05056e-05	15861
bin	2.136e-05	16237
bin	2.22144e-05	16734
bin	2.30688e-05	16947
bin	2.39232e-05	17341
bin	2.47776e-05	17598
bin	2.5632e-05	17368
bin	2.64864e-05	16962
bin	2.73408e-05	16150
bin	2.81952e-05	15523
bin	2.90496e-05	14507
bin	2.9904e-05	14087
bin	3.07584e-05	13148
bin	3.16128e-05	12246
bin	3.24672e-05	11569
bin	3.33216e-05	10806
bin	3.4176e-05	9978
bin	3.50304e-05	9431
bin	3.58848e-05	8870
bin	3.67392e-05	8282
bin	3.75936e-05	7841
bin	3.8448e-05	7527
bin	3.93024e-05	7208
bin	4.01568e-05	6975
bin	4.10112e-05	6950
bin	4.18656e-05	6847
bin	4.272e-05	6578
bin	4.35744e-05	6379
bin	4.44288e-05	6366
bin	4.52832e-05	6378
bin	4.61376e-05	6195
bin	4.6992e-05	6232
bin	4.78464e-05	6151
bin	4.87008e-05	6231
bin	4.95552e-05	6087
bin	5.04096e-05	6207
bin	5.1264e-05	6096
bin	5.21184e-05	5947
bin	5.29728e-05	5902
bin	5.38272e-05	5776
bin	5.46816e-05	5758
bin	5.5536e-05	5516
bin	5.63904e-05	5446
bin	5.72448e-05	5270
bin	5.80992e-05	5164
bin	5.89536e-05	5000
bin	5.9808e-05	4757
bin	6.06624e-05	4790
bin	6.15168e-05	4637
bin	6.23712e-05	4662
bin	6.32256e-05	4595
bin	6.408e-05	4523
bin	6.49344e-05	4430
bin	6.57888e-05	4556
bin	6.66432e-05	4450
bin	6.74976e-05	4488
bin	6.8352e-05	4311
bin	6.92064e-05	4265
bin	7.00608e-05	4295
bin	7.09152e-05	4260
bin	7.17696e-05	4142
bin	7.2624e-05	4271
bin	7.34784e-05	4144
bin	7.43328e-05	4209
bin	7.51872e-05	4128
bin	7.60416e-05	4200
bin	7.6896e-05	4135
bin	7.77504e-05	4139
bin	7.86048e-05	3879
bin	7.94592e-05	3900
bin	8.03136e-05	3946
bin	8.1168e-05	3861
bin	8.20224e-05	3861
bin	8.28768e-05	3661
bin	8.37312e-05	3627
bin	8.45856e-05	3615
bin	8.544e-05	3514
bin	8.62944e-05	3411
bin	8.71488e-05	3495
bin	8.80032e-05	3438
bin	8.88576e-05	3233
bin	8.9712e-05	3367
bin	9.05664e-05	3313
bin	9.14208e-05	3291
bin	9.22752e-05	3327
bin	9.31296e-05	3313
bin	9.3984e-05	3292
bin	9.48384e-05	3396
bin	9.56928e-05	3309
bin	9.65472e-05	3298
bin	9.74016e-05	3401
bin	9.8256e-05	3343
bin	9.91104e-05	3371
bin	9.99648e-05	3254
bin	0.0001008192	3337
bin	0.0001016736	3228
bin	0.000102528	3293
bin	0.0001033824	3210
bin	0.0001042368	3147
bin	0.0001050912	3154
bin	0.0001059456	3010
bin	0.0001068	3029
bin	0.0001076544	2945
bin	0.0001085088	2962
bin	0.0001093632	2975
bin	0.0001102176	2955
bin	0.000111072	2873
bin	0.0001119264	2890
bin	0.0001127808	2850
bin	0.0001136352	2809
bin	0.0001144896	2773
bin	0.000115344	2724
bin	0.0001161984	2708
bin	0.0001170528	2780
bin	0.0001179072	2699
bin	0.0001187616	2699
bin	0.000119616	2669
bin	0.0001204704	2701
bin	0.0001213248	2847
bin	0.0001221792	2727
bin	0.0001230336	2802
bin	0.000123888	2822
bin	0.0001247424	2842
bin	0.0001255968	2815
bin	0.0001264512	2885
bin	0.0001273056	2773
bin	0.00012816	2747
bin	0.0001290144	2791
bin	0.0001298688	2749
bin	0.0001307232	2688
bin	0.0001315776	2660
bin	0.000132432	2568
bin	0.0001332864	2614
bin	0.0001341408	2631
bin	0.0001349952	2425
bin	0.0001358496	2424
bin	0.000136704	2459
bin	0.0001375584	2436
bin	0.0001384128	2348
bin	0.0001392672	2353
bin	0.0001401216	2404
bin	0.000140976	2389
bin	0.0001418304	2374
bin	0.0001426848	2435
bin	0.0001435392	2445
bin	0.0001443936	2375
bin	0.000145248	2400
bin	0.0001461024	2408
bin	0.0001469568	2333
bin	0.0001478112	2410
bin	0.0001486656	2532
bin	0.00014952	2593
bin	0.0001503744	2470
bin	0.0001512288	2564
bin	0.0001520832	2507
bin	0.0001529376	2378
bin	0.000153792	2487
bin	0.0001546464	2411
bin	0.0001555008	2338
bin	0.0001563552	2367
bin	0.0001572096	2392
bin	0.000158064	2361
bin	0.0001589184	2333
bin	0.0001597728	2229
bin	0.0001606272	2239
bin	0.0001614816	2239
bin	0.000162336	2227
bin	0.0001631904	2235
bin	0.0001640448	2339
bin	0.0001648992	2211
bin	0.0001657536	2232
bin	0.000166608	2204
bin	0.0001674624	2252
bin	0.0001683168	2235
bin	0.0001691712	2270
bin	0.0001700256	2228
bin	0.00017088	2324
bin	0.0001717344	2201
bin	0.0001725888	2247
bin	0.0001734432	2229
bin	0.0001742976	2277
bin	0.000175152	2327
bin	0.0001760064	2259
bin	0.0001768608	2295
bin	0.0001777152	2321
bin	0.0001785696	2367
bin	0.000179424	2321
bin	0.0001802784	2306
bin	0.0001811328	2290
bin	0.0001819872	2203
bin	0.0001828416	2287
bin	0.000183696	2290
bin	0.0001845504	2284
bin	0.0001854048	2346
bin	0.0001862592	2307
bin	0.0001871136	2319
bin	0.000187968	2293
bin	0.0001888224	2281
bin	0.0001896768	2309
bin	0.0001905312	2160
bin	0.0001913856	2236
bin	0.00019224	2213
bin	0.0001930944	2221
bin	0.0001939488	2186
bin	0.0001948032	2165
bin	0.0001956576	2238
bin	0.000196512	2308
bin	0.0001973664	2292
bin	0.0001982208	2176
bin	0.0001990752	2304
bin	0.0001999296	2296
bin	0.000200784	2296
bin	0.0002016384	2373
bin	0.0002024928	2168
bin	0.0002033472	2232
bin	0.0002042016	2151
bin	0.000205056	2193
bin	0.0002059104	2153
bin	0.0002067648	2135
bin	0.0002076192	2015
bin	0.0002084736	2018
bin	0.000209328	2016
bin	0.0002101824	2019
bin	0.0002110368	2033
bin	0.0002118912	1979
bin	0.0002127456	1950
bin	0.0002136	1964
bin	0.0002144544	1927
bin	0.0002153088	1925
bin	0.0002161632	1972
bin	0.0002170176	1987
bin	0.000217872	1930
bin	0.0002187264	2050
bin	0.0002195808	1950
bin	0.0002204352	1957
bin	0.0002212896	1946
bin	0.000222144	1870
bin	0.0002229984	1996
bin	0.0002238528	1959
bin	0.0002247072	1957
bin	0.0002255616	1912
bin	0.000226416	1927
bin	0.0002272704	1919
bin	0.0002281248	1936
bin	0.0002289792	1808
bin	0.0002298336	1821
bin	0.000230688	1937
bin	0.0002315424	1822
bin	0.0002323968	1830
bin	0.0002332512	1896
bin	0.0002341056	1902
bin	0.00023496	1821
bin	0.0002358144	1914
bin	0.0002366688	1758
bin	0.0002375232	1807
bin	0.0002383776	1715
bin	0.000239232	1778
bin	0.0002400864	1866
bin	0.0002409408	1864
bin	0.0002417952	1805
bin	0.0002426496	1782
bin	0.000243504	1804
bin	0.0002443584	1821
bin	0.0002452128	1890
bin	0.0002460672	1890
bin	0.0002469216	1907
bin	0.000247776	1824
bin	0.0002486304	1929
bin	0.0002494848	1909
bin	0.0002503392	1988
bin	0.0002511936	1925
bin	0.000252048	1957
bin	0.0002529024	1932
bin	0.0002537568	1899
bin	0.0002546112	1885
bin	0.0002554656	1917
bin	0.00025632	1882
bin	0.0002571744	1876
bin	0.0002580288	1826
bin	0.0002588832	1844
bin	0.0002597376	1743
bin	0.000260592	1747
bin	0.0002614464	1770
bin	0.0002623008	1663
bin	0.0002631552	1726
bin	0.0002640096	1746
bin	0.000264864	1756
bin	0.0002657184	1776
bin	0.0002665728	1766
bin	0.0002674272	1694
bin	0.0002682816	1755
bin	0.000269136	1810
bin	0.0002699904	1811
bin	0.0002708448	1789
bin	0.0002716992	1767
bin	0.0002725536	1879
bin	0.000273408	1757
bin	0.0002742624	1825
bin	0.0002751168	1822
bin	0.0002759712	1732
bin	0.0002768256	1820
bin	0.00027768	1738
bin	0.0002785344	1689
bin	0.0002793888	1758
bin	0.0002802432	1752
bin	0.0002810976	1658
bin	0.000281952	1647
bin	0.0002828064	1600
bin	0.0002836608	1580
bin	0.0002845152	1592
bin	0.0002853696	1616
bin	0.000286224	1530
bin	0.0002870784	1553
bin	0.0002879328	1605
bin	0.0002887872	1595
bin	0.0002896416	1604
bin	0.000290496	1627
bin	0.0002913504	1663
bin	0.0002922048	1639
bin	0.0002930592	1614
bin	0.0002939136	1678
bin	0.000294768	1661
bin	0.0002956224	1633
bin	0.0002964768	1717
bin	0.0002973312	1686
bin	0.0002981856	1661
bin	0.00029904	1661
bin	0.0002998944	1667
bin	0.0003007488	1619
bin	0.0003016032	1633
bin	0.0003024576	1702
bin	0.000303312	1705
bin	0.0003041664	1596
bin	0.0003050208	1569
bin	0.0003058752	1593
bin	0.0003067296	1606
bin	0.000307584	1554
bin	0.0003084384	1578
bin	0.0003092928	1605
bin	0.0003101472	1612
bin	0.0003110016	1540
bin	0.000311856	1531
bin	0.0003127104	1595
bin	0.0003135648	1519
bin	0.0003144192	1555
bin	0.0003152736	1478
bin	0.000316128	1519
bin	0.0003169824	1462
bin	0.0003178368	1515
bin	0.0003186912	1589
bin	0.0003195456	1540
bin	0.0003204	1541
bin	0.0003212544	1542
bin	0.0003221088	1526
bin	0.0003229632	1578
bin	0.0003238176	1500
bin	0.000324672	1563
bin	0.0003255264	1527
bin	0.0003263808	1476
bin	0.0003272352	1497
bin	0.0003280896	1339
bin	0.000328944	1484
bin	0.0003297984	1403
bin	0.0003306528	1432
bin	0.0003315072	1445
bin	0.0003323616	1459
bin	0.000333216	1468
bin	0.0003340704	1517
bin	0.0003349248	1424
bin	0.0003357792	1494
bin	0.0003366336	1540
bin	0.000337488	1381
bin	0.0003383424	1416
bin	0.0003391968	1382
bin	0.0003400512	1434
bin	0.0003409056	1415
bin	0.00034176	1443
bin	0.0003426144	1449
bin	0.0003434688	1463
bin	0.0003443232	1479
bin	0.0003451776	1451
bin	0.000346032	1483
bin	0.0003468864	1490
bin	0.0003477408	1504
bin	0.0003485952	1474
bin	0.0003494496	1413
bin	0.000350304	1383
bin	0.0003511584	1419
bin	0.0003520128	1345
bin	0.0003528672	1368
bin	0.0003537216	1425
bin	0.000354576	1400
bin	0.0003554304	1381
bin	0.0003562848	1377
bin	0.0003571392	1348
bin	0.0003579936	1346
bin	0.000358848	1391
bin	0.0003597024	1410
bin	0.0003605568	1396
bin	0.0003614112	1374
bin	0.0003622656	1311
bin	0.00036312	1385
bin	0.0003639744	1398
bin	0.0003648288	1416
bin	0.0003656832	1431
bin	0.0003665376	1414
bin	0.000367392	1429
bin	0.0003682464	1365
bin	0.0003691008	1398
bin	0.0003699552	1388
bin	0.0003708096	1373
bin	0.000371664	1468
bin	0.0003725184	1463
bin	0.0003733728	1423
bin	0.0003742272	1498
bin	0.0003750816	1438
bin	0.000375936	1430
bin	0.0003767904	1423
bin	0.0003776448	1386
bin	0.0003784992	1417
bin	0.0003793536	1491
bin	0.000380208	1453
bin	0.0003810624	1429
bin	0.0003819168	1465
bin	0.0003827712	1454
bin	0.0003836256	1445
bin	0.00038448	1404
bin	0.0003853344	1426
bin	0.0003861888	1453
bin	0.0003870432	1517
bin	0.0003878976	1458
bin	0.000388752	1486
bin	0.0003896064	1525
bin	0.0003904608	1498
bin	0.0003913152	1510
bin	0.0003921696	1524
bin	0.000393024	1538
bin	0.0003938784	1534
bin	0.0003947328	1536
bin	0.0003955872	1526
bin	0.0003964416	1587
bin	0.000397296	1562
bin	0.0003981504	1559
bin	0.0003990048	1486
bin	0.0003998592	1522
bin	0.0004007136	1529
bin	0.000401568	1481
bin	0.0004024224	1481
bin	0.0004032768	1541
bin	0.0004041312	1429
bin	0.0004049856	1435
bin	0.00040584	1418
bin	0.0004066944	1412
bin	0.0004075488	1495
bin	0.0004084032	1389
bin	0.0004092576	1431
bin	0.000410112	1471
bin	0.0004109664	1442
bin	0.0004118208	1463
bin	0.0004126752	1408
bin	0.0004135296	1401
bin	0.000414384	1416
bin	0.0004152384	1446
bin	0.0004160928	1394
bin	0.0004169472	1552
bin	0.0004178016	1496
bin	0.000418656	1517
bin	0.0004195104	1454
bin	0.0004203648	1506
bin	0.0004212192	1484
bin	0.0004220736	1474
bin	0.000422928	1499
bin	0.0004237824	1462
bin	0.0004246368	1471
bin	0.0004254912	1476
bin	0.0004263456	1491
bin	0.0004272	4639327
