version 2
run Transposition-8-20120710-07:32:05-25251
attr alg 0
attr buf 8
attr configname Transposition
attr datetime 20120710-07:32:05
attr delta 0.6
attr experiment Transposition
attr ext true
attr inifile altro.ini
attr iterationvars "$buf=8, $ext=true, $ofedge=1, $delta=0.6, $alg=0"
attr iterationvars2 "$buf=8, $ext=true, $ofedge=1, $delta=0.6, $alg=0, $repetition=0"
attr measurement "$buf=8, $ext=true, $ofedge=1, $delta=0.6, $alg=0"
attr network Torus3d_bub
attr ofedge 1
attr processid 25251
attr repetition 0
attr replication #0
attr resultdir altro-results
attr runnumber 8
attr seedset 8

scalar . 	alg 	0
scalar . 	buf 	8
scalar . 	delta 	0.6
scalar . 	ofedge 	1
scalar Torus3d_bub.timer 	#endTime 	0.003108607666282
scalar Torus3d_bub.timer 	#totalHops 	75497472
scalar Torus3d_bub.timer 	#totalPacks 	6291456
scalar Torus3d_bub.timer 	#totalDerouted 	0
scalar Torus3d_bub.timer 	#totalOutFlanked 	0
scalar Torus3d_bub.timer 	#totalCQRed 	0
scalar Torus3d_bub.timer 	#LB 	0.000786432
scalar Torus3d_bub.timer 	#ratio 	0.25298528615565
statistic Torus3d_bub.timer 	"Hop Times"
field count 6193152
field mean 3.9376123839867e-05
field stddev 4.6959472389033e-05
field sum 243.86232011112
field sqrsum 0.023259440247992
field min 3.97925925e-07
field max 0.000563042266653
bin	-INF	0
bin	0	0
bin	7.12e-08	0
bin	1.424e-07	0
bin	2.136e-07	0
bin	2.848e-07	0
bin	3.56e-07	108
bin	4.272e-07	2816
bin	4.984e-07	6166
bin	5.696e-07	10414
bin	6.408e-07	15100
bin	7.12e-07	18910
bin	7.832e-07	21847
bin	8.544e-07	23914
bin	9.256e-07	25579
bin	9.968e-07	27087
bin	1.068e-06	28757
bin	1.1392e-06	30697
bin	1.2104e-06	32768
bin	1.2816e-06	35250
bin	1.3528e-06	38977
bin	1.424e-06	42378
bin	1.4952e-06	46021
bin	1.5664e-06	49418
bin	1.6376e-06	52760
bin	1.7088e-06	54877
bin	1.78e-06	57298
bin	1.8512e-06	59473
bin	1.9224e-06	60586
bin	1.9936e-06	61611
bin	2.0648e-06	62247
bin	2.136e-06	61972
bin	2.2072e-06	61482
bin	2.2784e-06	60329
bin	2.3496e-06	59331
bin	2.4208e-06	57982
bin	2.492e-06	56286
bin	2.5632e-06	55152
bin	2.6344e-06	53171
bin	2.7056e-06	51196
bin	2.7768e-06	49568
bin	2.848e-06	47559
bin	2.9192e-06	45807
bin	2.9904e-06	44268
bin	3.0616e-06	42613
bin	3.1328e-06	41254
bin	3.204e-06	39626
bin	3.2752e-06	38227
bin	3.3464e-06	36686
bin	3.4176e-06	35066
bin	3.4888e-06	33609
bin	3.56e-06	32449
bin	3.6312e-06	30612
bin	3.7024e-06	29846
bin	3.7736e-06	28312
bin	3.8448e-06	27284
bin	3.916e-06	26235
bin	3.9872e-06	25086
bin	4.0584e-06	24203
bin	4.1296e-06	23162
bin	4.2008e-06	22572
bin	4.272e-06	21689
bin	4.3432e-06	21092
bin	4.4144e-06	20055
bin	4.4856e-06	19524
bin	4.5568e-06	18660
bin	4.628e-06	17690
bin	4.6992e-06	17575
bin	4.7704e-06	16769
bin	4.8416e-06	15988
bin	4.9128e-06	15662
bin	4.984e-06	15062
bin	5.0552e-06	14585
bin	5.1264e-06	14143
bin	5.1976e-06	13745
bin	5.2688e-06	13567
bin	5.34e-06	13207
bin	5.4112e-06	12726
bin	5.4824e-06	12344
bin	5.5536e-06	12180
bin	5.6248e-06	11873
bin	5.696e-06	11543
bin	5.7672e-06	11176
bin	5.8384e-06	11068
bin	5.9096e-06	10781
bin	5.9808e-06	10573
bin	6.052e-06	10280
bin	6.1232e-06	10093
bin	6.1944e-06	10003
bin	6.2656e-06	9838
bin	6.3368e-06	9767
bin	6.408e-06	9686
bin	6.4792e-06	9164
bin	6.5504e-06	9128
bin	6.6216e-06	9026
bin	6.6928e-06	9146
bin	6.764e-06	8809
bin	6.8352e-06	8605
bin	6.9064e-06	8394
bin	6.9776e-06	8213
bin	7.0488e-06	8185
bin	7.12e-06	8037
bin	7.1912e-06	7991
bin	7.2624e-06	7725
bin	7.3336e-06	7637
bin	7.4048e-06	7667
bin	7.476e-06	7507
bin	7.5472e-06	7414
bin	7.6184e-06	7443
bin	7.6896e-06	7328
bin	7.7608e-06	7284
bin	7.832e-06	7259
bin	7.9032e-06	7058
bin	7.9744e-06	6982
bin	8.0456e-06	6911
bin	8.1168e-06	6836
bin	8.188e-06	6889
bin	8.2592e-06	6655
bin	8.3304e-06	6636
bin	8.4016e-06	6527
bin	8.4728e-06	6386
bin	8.544e-06	6259
bin	8.6152e-06	6258
bin	8.6864e-06	6161
bin	8.7576e-06	6085
bin	8.8288e-06	5949
bin	8.9e-06	5776
bin	8.9712e-06	5695
bin	9.0424e-06	5643
bin	9.1136e-06	5606
bin	9.1848e-06	5560
bin	9.256e-06	5355
bin	9.3272e-06	5178
bin	9.3984e-06	5259
bin	9.4696e-06	5164
bin	9.5408e-06	5169
bin	9.612e-06	5037
bin	9.6832e-06	4995
bin	9.7544e-06	4977
bin	9.8256e-06	4905
bin	9.8968e-06	4818
bin	9.968e-06	4748
bin	1.00392e-05	4794
bin	1.01104e-05	4698
bin	1.01816e-05	4589
bin	1.02528e-05	4589
bin	1.0324e-05	4665
bin	1.03952e-05	4563
bin	1.04664e-05	4679
bin	1.05376e-05	4429
bin	1.06088e-05	4555
bin	1.068e-05	4299
bin	1.07512e-05	4291
bin	1.08224e-05	4322
bin	1.08936e-05	4286
bin	1.09648e-05	4151
bin	1.1036e-05	4068
bin	1.11072e-05	4137
bin	1.11784e-05	4170
bin	1.12496e-05	4085
bin	1.13208e-05	4106
bin	1.1392e-05	4077
bin	1.14632e-05	4016
bin	1.15344e-05	3967
bin	1.16056e-05	4101
bin	1.16768e-05	3901
bin	1.1748e-05	3895
bin	1.18192e-05	3971
bin	1.18904e-05	3912
bin	1.19616e-05	3859
bin	1.20328e-05	3852
bin	1.2104e-05	3783
bin	1.21752e-05	3784
bin	1.22464e-05	3847
bin	1.23176e-05	3722
bin	1.23888e-05	3661
bin	1.246e-05	3720
bin	1.25312e-05	3802
bin	1.26024e-05	3737
bin	1.26736e-05	3702
bin	1.27448e-05	3613
bin	1.2816e-05	3727
bin	1.28872e-05	3703
bin	1.29584e-05	3701
bin	1.30296e-05	3582
bin	1.31008e-05	3521
bin	1.3172e-05	3484
bin	1.32432e-05	3485
bin	1.33144e-05	3454
bin	1.33856e-05	3415
bin	1.34568e-05	3488
bin	1.3528e-05	3322
bin	1.35992e-05	3407
bin	1.36704e-05	3345
bin	1.37416e-05	3338
bin	1.38128e-05	3400
bin	1.3884e-05	3261
bin	1.39552e-05	3275
bin	1.40264e-05	3137
bin	1.40976e-05	3231
bin	1.41688e-05	3224
bin	1.424e-05	3221
bin	1.43112e-05	3154
bin	1.43824e-05	3215
bin	1.44536e-05	3183
bin	1.45248e-05	3195
bin	1.4596e-05	3094
bin	1.46672e-05	3137
bin	1.47384e-05	3177
bin	1.48096e-05	3144
bin	1.48808e-05	3085
bin	1.4952e-05	3139
bin	1.50232e-05	3168
bin	1.50944e-05	3175
bin	1.51656e-05	3066
bin	1.52368e-05	3102
bin	1.5308e-05	3108
bin	1.53792e-05	3015
bin	1.54504e-05	3006
bin	1.55216e-05	3062
bin	1.55928e-05	2997
bin	1.5664e-05	3056
bin	1.57352e-05	3069
bin	1.58064e-05	2984
bin	1.58776e-05	2999
bin	1.59488e-05	2984
bin	1.602e-05	3048
bin	1.60912e-05	2966
bin	1.61624e-05	2889
bin	1.62336e-05	2870
bin	1.63048e-05	2798
bin	1.6376e-05	2896
bin	1.64472e-05	2893
bin	1.65184e-05	2904
bin	1.65896e-05	2913
bin	1.66608e-05	2922
bin	1.6732e-05	2851
bin	1.68032e-05	2816
bin	1.68744e-05	2737
bin	1.69456e-05	2743
bin	1.70168e-05	2713
bin	1.7088e-05	2700
bin	1.71592e-05	2729
bin	1.72304e-05	2706
bin	1.73016e-05	2663
bin	1.73728e-05	2696
bin	1.7444e-05	2609
bin	1.75152e-05	2611
bin	1.75864e-05	2557
bin	1.76576e-05	2676
bin	1.77288e-05	2642
bin	1.78e-05	2588
bin	1.78712e-05	2587
bin	1.79424e-05	2535
bin	1.80136e-05	2527
bin	1.80848e-05	2553
bin	1.8156e-05	2398
bin	1.82272e-05	2476
bin	1.82984e-05	2544
bin	1.83696e-05	2484
bin	1.84408e-05	2524
bin	1.8512e-05	2578
bin	1.85832e-05	2518
bin	1.86544e-05	2443
bin	1.87256e-05	2498
bin	1.87968e-05	2584
bin	1.8868e-05	2547
bin	1.89392e-05	2540
bin	1.90104e-05	2523
bin	1.90816e-05	2538
bin	1.91528e-05	2471
bin	1.9224e-05	2479
bin	1.92952e-05	2495
bin	1.93664e-05	2527
bin	1.94376e-05	2544
bin	1.95088e-05	2435
bin	1.958e-05	2437
bin	1.96512e-05	2432
bin	1.97224e-05	2405
bin	1.97936e-05	2422
bin	1.98648e-05	2329
bin	1.9936e-05	2356
bin	2.00072e-05	2376
bin	2.00784e-05	2384
bin	2.01496e-05	2398
bin	2.02208e-05	2360
bin	2.0292e-05	2387
bin	2.03632e-05	2371
bin	2.04344e-05	2445
bin	2.05056e-05	2418
bin	2.05768e-05	2405
bin	2.0648e-05	2344
bin	2.07192e-05	2327
bin	2.07904e-05	2352
bin	2.08616e-05	2329
bin	2.09328e-05	2357
bin	2.1004e-05	2352
bin	2.10752e-05	2336
bin	2.11464e-05	2217
bin	2.12176e-05	2283
bin	2.12888e-05	2264
bin	2.136e-05	2263
bin	2.14312e-05	2249
bin	2.15024e-05	2219
bin	2.15736e-05	2246
bin	2.16448e-05	2132
bin	2.1716e-05	2177
bin	2.17872e-05	2212
bin	2.18584e-05	2143
bin	2.19296e-05	2018
bin	2.20008e-05	2138
bin	2.2072e-05	2146
bin	2.21432e-05	2105
bin	2.22144e-05	2247
bin	2.22856e-05	2188
bin	2.23568e-05	2277
bin	2.2428e-05	2195
bin	2.24992e-05	2230
bin	2.25704e-05	2207
bin	2.26416e-05	2165
bin	2.27128e-05	2183
bin	2.2784e-05	2168
bin	2.28552e-05	2145
bin	2.29264e-05	2108
bin	2.29976e-05	2170
bin	2.30688e-05	2069
bin	2.314e-05	2126
bin	2.32112e-05	2089
bin	2.32824e-05	2109
bin	2.33536e-05	2069
bin	2.34248e-05	2024
bin	2.3496e-05	2124
bin	2.35672e-05	2090
bin	2.36384e-05	2059
bin	2.37096e-05	2057
bin	2.37808e-05	2030
bin	2.3852e-05	2084
bin	2.39232e-05	2166
bin	2.39944e-05	2129
bin	2.40656e-05	2126
bin	2.41368e-05	2177
bin	2.4208e-05	2077
bin	2.42792e-05	2103
bin	2.43504e-05	2112
bin	2.44216e-05	2034
bin	2.44928e-05	2054
bin	2.4564e-05	2082
bin	2.46352e-05	2128
bin	2.47064e-05	2133
bin	2.47776e-05	2091
bin	2.48488e-05	2090
bin	2.492e-05	2081
bin	2.49912e-05	2068
bin	2.50624e-05	2064
bin	2.51336e-05	2046
bin	2.52048e-05	2082
bin	2.5276e-05	2007
bin	2.53472e-05	1974
bin	2.54184e-05	2090
bin	2.54896e-05	1982
bin	2.55608e-05	2076
bin	2.5632e-05	2042
bin	2.57032e-05	2079
bin	2.57744e-05	2026
bin	2.58456e-05	2016
bin	2.59168e-05	1974
bin	2.5988e-05	2034
bin	2.60592e-05	2053
bin	2.61304e-05	1998
bin	2.62016e-05	2015
bin	2.62728e-05	1958
bin	2.6344e-05	1995
bin	2.64152e-05	1947
bin	2.64864e-05	1883
bin	2.65576e-05	1948
bin	2.66288e-05	1831
bin	2.67e-05	1838
bin	2.67712e-05	1837
bin	2.68424e-05	1836
bin	2.69136e-05	1898
bin	2.69848e-05	1855
bin	2.7056e-05	1928
bin	2.71272e-05	1901
bin	2.71984e-05	1876
bin	2.72696e-05	1877
bin	2.73408e-05	1874
bin	2.7412e-05	1878
bin	2.74832e-05	1926
bin	2.75544e-05	2004
bin	2.76256e-05	1987
bin	2.76968e-05	1966
bin	2.7768e-05	1885
bin	2.78392e-05	1880
bin	2.79104e-05	1942
bin	2.79816e-05	1933
bin	2.80528e-05	1853
bin	2.8124e-05	1873
bin	2.81952e-05	1891
bin	2.82664e-05	1827
bin	2.83376e-05	1890
bin	2.84088e-05	1861
bin	2.848e-05	1884
bin	2.85512e-05	1932
bin	2.86224e-05	1909
bin	2.86936e-05	1850
bin	2.87648e-05	1940
bin	2.8836e-05	1889
bin	2.89072e-05	1921
bin	2.89784e-05	1893
bin	2.90496e-05	1983
bin	2.91208e-05	1888
bin	2.9192e-05	1904
bin	2.92632e-05	1831
bin	2.93344e-05	1837
bin	2.94056e-05	1885
bin	2.94768e-05	1835
bin	2.9548e-05	1904
bin	2.96192e-05	1835
bin	2.96904e-05	1946
bin	2.97616e-05	1881
bin	2.98328e-05	1825
bin	2.9904e-05	1917
bin	2.99752e-05	1922
bin	3.00464e-05	1870
bin	3.01176e-05	1891
bin	3.01888e-05	1838
bin	3.026e-05	1765
bin	3.03312e-05	1880
bin	3.04024e-05	1820
bin	3.04736e-05	1786
bin	3.05448e-05	1777
bin	3.0616e-05	1781
bin	3.06872e-05	1783
bin	3.07584e-05	1867
bin	3.08296e-05	1813
bin	3.09008e-05	1856
bin	3.0972e-05	1834
bin	3.10432e-05	1869
bin	3.11144e-05	1924
bin	3.11856e-05	1822
bin	3.12568e-05	1925
bin	3.1328e-05	1879
bin	3.13992e-05	1867
bin	3.14704e-05	1840
bin	3.15416e-05	1815
bin	3.16128e-05	1875
bin	3.1684e-05	1943
bin	3.17552e-05	1885
bin	3.18264e-05	1885
bin	3.18976e-05	1868
bin	3.19688e-05	1899
bin	3.204e-05	1866
bin	3.21112e-05	1864
bin	3.21824e-05	1865
bin	3.22536e-05	1783
bin	3.23248e-05	1882
bin	3.2396e-05	1901
bin	3.24672e-05	1853
bin	3.25384e-05	1820
bin	3.26096e-05	1920
bin	3.26808e-05	1905
bin	3.2752e-05	1805
bin	3.28232e-05	1849
bin	3.28944e-05	1889
bin	3.29656e-05	1885
bin	3.30368e-05	1927
bin	3.3108e-05	1830
bin	3.31792e-05	1942
bin	3.32504e-05	1980
bin	3.33216e-05	1883
bin	3.33928e-05	1861
bin	3.3464e-05	1770
bin	3.35352e-05	1847
bin	3.36064e-05	1873
bin	3.36776e-05	1804
bin	3.37488e-05	1822
bin	3.382e-05	1775
bin	3.38912e-05	1877
bin	3.39624e-05	1916
bin	3.40336e-05	1816
bin	3.41048e-05	1796
bin	3.4176e-05	1858
bin	3.42472e-05	1735
bin	3.43184e-05	1791
bin	3.43896e-05	1760
bin	3.44608e-05	1789
bin	3.4532e-05	1823
bin	3.46032e-05	1854
bin	3.46744e-05	1782
bin	3.47456e-05	1831
bin	3.48168e-05	1831
bin	3.4888e-05	1703
bin	3.49592e-05	1833
bin	3.50304e-05	1802
bin	3.51016e-05	1758
bin	3.51728e-05	1774
bin	3.5244e-05	1845
bin	3.53152e-05	1777
bin	3.53864e-05	1828
bin	3.54576e-05	1848
bin	3.55288e-05	1726
bin	3.56e-05	2429192
statistic Torus3d_bub.timer 	"Life Times"
field count 6291456
field mean 0.0004724490011005
field stddev 0.00056767649255327
field sum 2972.3921026678
field sqrsum 3.4317665783805
field min 3.77331349e-07
field max 0.002889073332373
bin	-INF	0
bin	0	6144
bin	8.544e-07	8192
bin	1.7088e-06	9629
bin	2.5632e-06	12166
bin	3.4176e-06	14578
bin	4.272e-06	16979
bin	5.1264e-06	19920
bin	5.9808e-06	22657
bin	6.8352e-06	25878
bin	7.6896e-06	29314
bin	8.544e-06	31943
bin	9.3984e-06	35018
bin	1.02528e-05	31509
bin	1.11072e-05	31695
bin	1.19616e-05	33554
bin	1.2816e-05	35386
bin	1.36704e-05	36663
bin	1.45248e-05	38428
bin	1.53792e-05	39853
bin	1.62336e-05	41078
bin	1.7088e-05	42260
bin	1.79424e-05	43760
bin	1.87968e-05	45194
bin	1.96512e-05	46676
bin	2.05056e-05	48371
bin	2.136e-05	50077
bin	2.22144e-05	51855
bin	2.30688e-05	54427
bin	2.39232e-05	55831
bin	2.47776e-05	57545
bin	2.5632e-05	59212
bin	2.64864e-05	60143
bin	2.73408e-05	59717
bin	2.81952e-05	59959
bin	2.90496e-05	59784
bin	2.9904e-05	59493
bin	3.07584e-05	58701
bin	3.16128e-05	57961
bin	3.24672e-05	56490
bin	3.33216e-05	55481
bin	3.4176e-05	53711
bin	3.50304e-05	52619
bin	3.58848e-05	51607
bin	3.67392e-05	50073
bin	3.75936e-05	49324
bin	3.8448e-05	47925
bin	3.93024e-05	47274
bin	4.01568e-05	46302
bin	4.10112e-05	44760
bin	4.18656e-05	42952
bin	4.272e-05	39591
bin	4.35744e-05	36585
bin	4.44288e-05	33994
bin	4.52832e-05	31382
bin	4.61376e-05	29214
bin	4.6992e-05	26500
bin	4.78464e-05	24520
bin	4.87008e-05	22368
bin	4.95552e-05	20437
bin	5.04096e-05	18821
bin	5.1264e-05	17285
bin	5.21184e-05	16052
bin	5.29728e-05	15174
bin	5.38272e-05	14086
bin	5.46816e-05	13336
bin	5.5536e-05	12698
bin	5.63904e-05	11927
bin	5.72448e-05	11604
bin	5.80992e-05	11010
bin	5.89536e-05	10705
bin	5.9808e-05	10331
bin	6.06624e-05	10073
bin	6.15168e-05	9924
bin	6.23712e-05	9889
bin	6.32256e-05	9612
bin	6.408e-05	9598
bin	6.49344e-05	9304
bin	6.57888e-05	9295
bin	6.66432e-05	9191
bin	6.74976e-05	9037
bin	6.8352e-05	9136
bin	6.92064e-05	9068
bin	7.00608e-05	9266
bin	7.09152e-05	8818
bin	7.17696e-05	8991
bin	7.2624e-05	8925
bin	7.34784e-05	8933
bin	7.43328e-05	8956
bin	7.51872e-05	9035
bin	7.60416e-05	8962
bin	7.6896e-05	9105
bin	7.77504e-05	8950
bin	7.86048e-05	9174
bin	7.94592e-05	9103
bin	8.03136e-05	9190
bin	8.1168e-05	9051
bin	8.20224e-05	9314
bin	8.28768e-05	9473
bin	8.37312e-05	9313
bin	8.45856e-05	9394
bin	8.544e-05	9210
bin	8.62944e-05	8769
bin	8.71488e-05	8611
bin	8.80032e-05	8130
bin	8.88576e-05	7862
bin	8.9712e-05	7543
bin	9.05664e-05	7219
bin	9.14208e-05	6878
bin	9.22752e-05	6482
bin	9.31296e-05	6469
bin	9.3984e-05	6363
bin	9.48384e-05	6069
bin	9.56928e-05	5924
bin	9.65472e-05	5722
bin	9.74016e-05	5508
bin	9.8256e-05	5436
bin	9.91104e-05	5367
bin	9.99648e-05	5338
bin	0.0001008192	5408
bin	0.0001016736	5212
bin	0.000102528	5222
bin	0.0001033824	4944
bin	0.0001042368	5042
bin	0.0001050912	4984
bin	0.0001059456	5113
bin	0.0001068	4957
bin	0.0001076544	4996
bin	0.0001085088	5022
bin	0.0001093632	5004
bin	0.0001102176	5094
bin	0.000111072	4969
bin	0.0001119264	4887
bin	0.0001127808	4990
bin	0.0001136352	5082
bin	0.0001144896	5077
bin	0.000115344	5219
bin	0.0001161984	5179
bin	0.0001170528	4949
bin	0.0001179072	4997
bin	0.0001187616	5200
bin	0.000119616	5137
bin	0.0001204704	5140
bin	0.0001213248	5148
bin	0.0001221792	5199
bin	0.0001230336	5205
bin	0.000123888	5116
bin	0.0001247424	5251
bin	0.0001255968	5243
bin	0.0001264512	5192
bin	0.0001273056	4906
bin	0.00012816	5227
bin	0.0001290144	4992
bin	0.0001298688	4765
bin	0.0001307232	4675
bin	0.0001315776	4372
bin	0.000132432	4277
bin	0.0001332864	4221
bin	0.0001341408	4005
bin	0.0001349952	3924
bin	0.0001358496	3950
bin	0.000136704	3787
bin	0.0001375584	3597
bin	0.0001384128	3634
bin	0.0001392672	3547
bin	0.0001401216	3483
bin	0.000140976	3510
bin	0.0001418304	3492
bin	0.0001426848	3441
bin	0.0001435392	3395
bin	0.0001443936	3518
bin	0.000145248	3447
bin	0.0001461024	3423
bin	0.0001469568	3508
bin	0.0001478112	3465
bin	0.0001486656	3514
bin	0.00014952	3468
bin	0.0001503744	3468
bin	0.0001512288	3543
bin	0.0001520832	3466
bin	0.0001529376	3565
bin	0.000153792	3440
bin	0.0001546464	3472
bin	0.0001555008	3505
bin	0.0001563552	3488
bin	0.0001572096	3659
bin	0.000158064	3544
bin	0.0001589184	3543
bin	0.0001597728	3405
bin	0.0001606272	3513
bin	0.0001614816	3570
bin	0.000162336	3644
bin	0.0001631904	3645
bin	0.0001640448	3641
bin	0.0001648992	3735
bin	0.0001657536	3889
bin	0.000166608	3774
bin	0.0001674624	3707
bin	0.0001683168	3736
bin	0.0001691712	3677
bin	0.0001700256	3536
bin	0.00017088	3391
bin	0.0001717344	3298
bin	0.0001725888	3236
bin	0.0001734432	3177
bin	0.0001742976	3185
bin	0.000175152	3021
bin	0.0001760064	2965
bin	0.0001768608	3024
bin	0.0001777152	2897
bin	0.0001785696	2833
bin	0.000179424	2888
bin	0.0001802784	2853
bin	0.0001811328	2789
bin	0.0001819872	2651
bin	0.0001828416	2826
bin	0.000183696	2802
bin	0.0001845504	2822
bin	0.0001854048	2720
bin	0.0001862592	2782
bin	0.0001871136	2779
bin	0.000187968	2791
bin	0.0001888224	2809
bin	0.0001896768	2777
bin	0.0001905312	2834
bin	0.0001913856	2792
bin	0.00019224	2791
bin	0.0001930944	2818
bin	0.0001939488	2759
bin	0.0001948032	2880
bin	0.0001956576	2817
bin	0.000196512	2832
bin	0.0001973664	2815
bin	0.0001982208	2717
bin	0.0001990752	2777
bin	0.0001999296	2910
bin	0.000200784	2827
bin	0.0002016384	3002
bin	0.0002024928	2953
bin	0.0002033472	2917
bin	0.0002042016	2930
bin	0.000205056	3069
bin	0.0002059104	3086
bin	0.0002067648	3089
bin	0.0002076192	2974
bin	0.0002084736	3065
bin	0.000209328	2980
bin	0.0002101824	2797
bin	0.0002110368	2799
bin	0.0002118912	2750
bin	0.0002127456	2763
bin	0.0002136	2580
bin	0.0002144544	2599
bin	0.0002153088	2697
bin	0.0002161632	2613
bin	0.0002170176	2552
bin	0.000217872	2547
bin	0.0002187264	2422
bin	0.0002195808	2410
bin	0.0002204352	2430
bin	0.0002212896	2439
bin	0.000222144	2386
bin	0.0002229984	2353
bin	0.0002238528	2326
bin	0.0002247072	2298
bin	0.0002255616	2293
bin	0.000226416	2292
bin	0.0002272704	2265
bin	0.0002281248	2362
bin	0.0002289792	2266
bin	0.0002298336	2433
bin	0.000230688	2426
bin	0.0002315424	2357
bin	0.0002323968	2362
bin	0.0002332512	2433
bin	0.0002341056	2338
bin	0.00023496	2326
bin	0.0002358144	2358
bin	0.0002366688	2382
bin	0.0002375232	2386
bin	0.0002383776	2379
bin	0.000239232	2449
bin	0.0002400864	2529
bin	0.0002409408	2447
bin	0.0002417952	2411
bin	0.0002426496	2403
bin	0.000243504	2462
bin	0.0002443584	2559
bin	0.0002452128	2516
bin	0.0002460672	2521
bin	0.0002469216	2617
bin	0.000247776	2599
bin	0.0002486304	2640
bin	0.0002494848	2555
bin	0.0002503392	2508
bin	0.0002511936	2459
bin	0.000252048	2405
bin	0.0002529024	2450
bin	0.0002537568	2401
bin	0.0002546112	2391
bin	0.0002554656	2313
bin	0.00025632	2188
bin	0.0002571744	2181
bin	0.0002580288	2145
bin	0.0002588832	2197
bin	0.0002597376	2189
bin	0.000260592	2102
bin	0.0002614464	2158
bin	0.0002623008	2141
bin	0.0002631552	2131
bin	0.0002640096	2057
bin	0.000264864	2112
bin	0.0002657184	2133
bin	0.0002665728	2081
bin	0.0002674272	2102
bin	0.0002682816	2079
bin	0.000269136	2083
bin	0.0002699904	2119
bin	0.0002708448	2154
bin	0.0002716992	2124
bin	0.0002725536	2114
bin	0.000273408	2158
bin	0.0002742624	2164
bin	0.0002751168	2173
bin	0.0002759712	2155
bin	0.0002768256	2206
bin	0.00027768	2198
bin	0.0002785344	2151
bin	0.0002793888	2195
bin	0.0002802432	2190
bin	0.0002810976	2241
bin	0.000281952	2165
bin	0.0002828064	2273
bin	0.0002836608	2295
bin	0.0002845152	2237
bin	0.0002853696	2339
bin	0.000286224	2294
bin	0.0002870784	2321
bin	0.0002879328	2277
bin	0.0002887872	2381
bin	0.0002896416	2307
bin	0.000290496	2416
bin	0.0002913504	2329
bin	0.0002922048	2396
bin	0.0002930592	2299
bin	0.0002939136	2335
bin	0.000294768	2217
bin	0.0002956224	2145
bin	0.0002964768	2224
bin	0.0002973312	2198
bin	0.0002981856	2168
bin	0.00029904	2119
bin	0.0002998944	2041
bin	0.0003007488	2014
bin	0.0003016032	2091
bin	0.0003024576	1984
bin	0.000303312	1971
bin	0.0003041664	1929
bin	0.0003050208	1906
bin	0.0003058752	1965
bin	0.0003067296	1961
bin	0.000307584	1883
bin	0.0003084384	1943
bin	0.0003092928	1909
bin	0.0003101472	1939
bin	0.0003110016	1849
bin	0.000311856	1914
bin	0.0003127104	1960
bin	0.0003135648	1962
bin	0.0003144192	1941
bin	0.0003152736	2014
bin	0.000316128	2002
bin	0.0003169824	1996
bin	0.0003178368	1970
bin	0.0003186912	1940
bin	0.0003195456	1914
bin	0.0003204	2014
bin	0.0003212544	1955
bin	0.0003221088	2042
bin	0.0003229632	2020
bin	0.0003238176	2085
bin	0.000324672	2072
bin	0.0003255264	2095
bin	0.0003263808	2190
bin	0.0003272352	2153
bin	0.0003280896	2256
bin	0.000328944	2264
bin	0.0003297984	2258
bin	0.0003306528	2284
bin	0.0003315072	2145
bin	0.0003323616	2235
bin	0.000333216	2174
bin	0.0003340704	2070
bin	0.0003349248	2049
bin	0.0003357792	2088
bin	0.0003366336	2042
bin	0.000337488	1989
bin	0.0003383424	1956
bin	0.0003391968	1995
bin	0.0003400512	1955
bin	0.0003409056	1862
bin	0.00034176	1858
bin	0.0003426144	1842
bin	0.0003434688	1839
bin	0.0003443232	1764
bin	0.0003451776	1936
bin	0.000346032	1868
bin	0.0003468864	1812
bin	0.0003477408	1860
bin	0.0003485952	1884
bin	0.0003494496	1923
bin	0.000350304	1872
bin	0.0003511584	1858
bin	0.0003520128	1831
bin	0.0003528672	1805
bin	0.0003537216	1911
bin	0.000354576	1896
bin	0.0003554304	1889
bin	0.0003562848	1908
bin	0.0003571392	1880
bin	0.0003579936	1938
bin	0.000358848	1958
bin	0.0003597024	1937
bin	0.0003605568	1899
bin	0.0003614112	1940
bin	0.0003622656	1964
bin	0.00036312	1933
bin	0.0003639744	2002
bin	0.0003648288	2015
bin	0.0003656832	1952
bin	0.0003665376	2024
bin	0.000367392	1993
bin	0.0003682464	1976
bin	0.0003691008	1961
bin	0.0003699552	2016
bin	0.0003708096	1971
bin	0.000371664	1957
bin	0.0003725184	1988
bin	0.0003733728	2062
bin	0.0003742272	1971
bin	0.0003750816	1876
bin	0.000375936	1904
bin	0.0003767904	1867
bin	0.0003776448	1812
bin	0.0003784992	1829
bin	0.0003793536	1778
bin	0.000380208	1763
bin	0.0003810624	1724
bin	0.0003819168	1747
bin	0.0003827712	1714
bin	0.0003836256	1743
bin	0.00038448	1802
bin	0.0003853344	1759
bin	0.0003861888	1787
bin	0.0003870432	1729
bin	0.0003878976	1709
bin	0.000388752	1741
bin	0.0003896064	1772
bin	0.0003904608	1763
bin	0.0003913152	1730
bin	0.0003921696	1688
bin	0.000393024	1740
bin	0.0003938784	1777
bin	0.0003947328	1701
bin	0.0003955872	1734
bin	0.0003964416	1717
bin	0.000397296	1681
bin	0.0003981504	1678
bin	0.0003990048	1781
bin	0.0003998592	1752
bin	0.0004007136	1690
bin	0.000401568	1751
bin	0.0004024224	1746
bin	0.0004032768	1724
bin	0.0004041312	1738
bin	0.0004049856	1770
bin	0.00040584	1808
bin	0.0004066944	1768
bin	0.0004075488	1837
bin	0.0004084032	1748
bin	0.0004092576	1753
bin	0.000410112	1817
bin	0.0004109664	1833
bin	0.0004118208	1916
bin	0.0004126752	1886
bin	0.0004135296	1856
bin	0.000414384	1847
bin	0.0004152384	1804
bin	0.0004160928	1806
bin	0.0004169472	1779
bin	0.0004178016	1766
bin	0.000418656	1788
bin	0.0004195104	1710
bin	0.0004203648	1703
bin	0.0004212192	1621
bin	0.0004220736	1739
bin	0.000422928	1712
bin	0.0004237824	1699
bin	0.0004246368	1647
bin	0.0004254912	1611
bin	0.0004263456	1665
bin	0.0004272	2372267
