version 2
run Transposition-49-20120710-13:20:10-25467
attr alg 1
attr buf 8
attr configname Transposition
attr datetime 20120710-13:20:10
attr delta 0.6
attr experiment Transposition
attr ext false
attr inifile altro.ini
attr iterationvars "$buf=8, $ext=false, $ofedge=1, $delta=0.6, $alg=1"
attr iterationvars2 "$buf=8, $ext=false, $ofedge=1, $delta=0.6, $alg=1, $repetition=0"
attr measurement "$buf=8, $ext=false, $ofedge=1, $delta=0.6, $alg=1"
attr network Torus3d_bub
attr ofedge 1
attr processid 25467
attr repetition 0
attr replication #0
attr resultdir altro-results
attr runnumber 49
attr seedset 49

scalar . 	alg 	1
scalar . 	buf 	8
scalar . 	delta 	0.6
scalar . 	ofedge 	1
scalar Torus3d_bub.timer 	#endTime 	0.004119604327277
scalar Torus3d_bub.timer 	#totalHops 	82868809
scalar Torus3d_bub.timer 	#totalPacks 	6291456
scalar Torus3d_bub.timer 	#totalDerouted 	1762904
scalar Torus3d_bub.timer 	#totalOutFlanked 	1762904
scalar Torus3d_bub.timer 	#totalCQRed 	0
scalar Torus3d_bub.timer 	#LB 	0.000786432
scalar Torus3d_bub.timer 	#ratio 	0.19089988686361
statistic Torus3d_bub.timer 	"Hop Times"
field count 6193152
field mean 6.849960250623e-05
field stddev 7.9400193511153e-05
field sum 424.22845026066
field sqrsum 0.068103523966155
field min 3.74222222e-07
field max 0.000701117333333
bin	-INF	0
bin	0	0
bin	7.12e-08	0
bin	1.424e-07	0
bin	2.136e-07	0
bin	2.848e-07	0
bin	3.56e-07	306
bin	4.272e-07	3152
bin	4.984e-07	7329
bin	5.696e-07	12382
bin	6.408e-07	17906
bin	7.12e-07	23068
bin	7.832e-07	26851
bin	8.544e-07	29719
bin	9.256e-07	31538
bin	9.968e-07	33604
bin	1.068e-06	34666
bin	1.1392e-06	36217
bin	1.2104e-06	38916
bin	1.2816e-06	41663
bin	1.3528e-06	46178
bin	1.424e-06	51120
bin	1.4952e-06	56538
bin	1.5664e-06	61726
bin	1.6376e-06	67296
bin	1.7088e-06	70869
bin	1.78e-06	74255
bin	1.8512e-06	75579
bin	1.9224e-06	77040
bin	1.9936e-06	77650
bin	2.0648e-06	76892
bin	2.136e-06	75956
bin	2.2072e-06	74372
bin	2.2784e-06	72959
bin	2.3496e-06	69449
bin	2.4208e-06	66727
bin	2.492e-06	63657
bin	2.5632e-06	60990
bin	2.6344e-06	57812
bin	2.7056e-06	54734
bin	2.7768e-06	52067
bin	2.848e-06	48927
bin	2.9192e-06	46580
bin	2.9904e-06	43847
bin	3.0616e-06	41502
bin	3.1328e-06	39149
bin	3.204e-06	37316
bin	3.2752e-06	34656
bin	3.3464e-06	32527
bin	3.4176e-06	30450
bin	3.4888e-06	28683
bin	3.56e-06	27016
bin	3.6312e-06	25047
bin	3.7024e-06	23711
bin	3.7736e-06	22015
bin	3.8448e-06	20860
bin	3.916e-06	19634
bin	3.9872e-06	18661
bin	4.0584e-06	17576
bin	4.1296e-06	16872
bin	4.2008e-06	15964
bin	4.272e-06	15079
bin	4.3432e-06	14397
bin	4.4144e-06	13617
bin	4.4856e-06	13042
bin	4.5568e-06	12335
bin	4.628e-06	11937
bin	4.6992e-06	11307
bin	4.7704e-06	10685
bin	4.8416e-06	10196
bin	4.9128e-06	9930
bin	4.984e-06	9361
bin	5.0552e-06	9156
bin	5.1264e-06	8568
bin	5.1976e-06	8470
bin	5.2688e-06	8067
bin	5.34e-06	7631
bin	5.4112e-06	7644
bin	5.4824e-06	7260
bin	5.5536e-06	7024
bin	5.6248e-06	6789
bin	5.696e-06	6572
bin	5.7672e-06	6237
bin	5.8384e-06	6164
bin	5.9096e-06	5833
bin	5.9808e-06	5720
bin	6.052e-06	5551
bin	6.1232e-06	5343
bin	6.1944e-06	5283
bin	6.2656e-06	5282
bin	6.3368e-06	5035
bin	6.408e-06	4943
bin	6.4792e-06	4796
bin	6.5504e-06	4665
bin	6.6216e-06	4612
bin	6.6928e-06	4333
bin	6.764e-06	4290
bin	6.8352e-06	4091
bin	6.9064e-06	4063
bin	6.9776e-06	4004
bin	7.0488e-06	3887
bin	7.12e-06	3774
bin	7.1912e-06	3656
bin	7.2624e-06	3546
bin	7.3336e-06	3535
bin	7.4048e-06	3440
bin	7.476e-06	3399
bin	7.5472e-06	3408
bin	7.6184e-06	3236
bin	7.6896e-06	3223
bin	7.7608e-06	3145
bin	7.832e-06	3109
bin	7.9032e-06	2955
bin	7.9744e-06	3024
bin	8.0456e-06	2977
bin	8.1168e-06	2921
bin	8.188e-06	2915
bin	8.2592e-06	2915
bin	8.3304e-06	2939
bin	8.4016e-06	2826
bin	8.4728e-06	2769
bin	8.544e-06	2788
bin	8.6152e-06	2799
bin	8.6864e-06	2698
bin	8.7576e-06	2594
bin	8.8288e-06	2576
bin	8.9e-06	2449
bin	8.9712e-06	2320
bin	9.0424e-06	2184
bin	9.1136e-06	2174
bin	9.1848e-06	2134
bin	9.256e-06	2140
bin	9.3272e-06	2127
bin	9.3984e-06	2050
bin	9.4696e-06	2135
bin	9.5408e-06	1976
bin	9.612e-06	1902
bin	9.6832e-06	1856
bin	9.7544e-06	1834
bin	9.8256e-06	1899
bin	9.8968e-06	1855
bin	9.968e-06	1841
bin	1.00392e-05	1797
bin	1.01104e-05	1796
bin	1.01816e-05	1808
bin	1.02528e-05	1837
bin	1.0324e-05	1869
bin	1.03952e-05	1780
bin	1.04664e-05	1780
bin	1.05376e-05	1700
bin	1.06088e-05	1681
bin	1.068e-05	1645
bin	1.07512e-05	1643
bin	1.08224e-05	1633
bin	1.08936e-05	1626
bin	1.09648e-05	1620
bin	1.1036e-05	1545
bin	1.11072e-05	1527
bin	1.11784e-05	1463
bin	1.12496e-05	1496
bin	1.13208e-05	1471
bin	1.1392e-05	1413
bin	1.14632e-05	1448
bin	1.15344e-05	1432
bin	1.16056e-05	1389
bin	1.16768e-05	1433
bin	1.1748e-05	1431
bin	1.18192e-05	1387
bin	1.18904e-05	1380
bin	1.19616e-05	1415
bin	1.20328e-05	1459
bin	1.2104e-05	1398
bin	1.21752e-05	1389
bin	1.22464e-05	1392
bin	1.23176e-05	1411
bin	1.23888e-05	1367
bin	1.246e-05	1434
bin	1.25312e-05	1349
bin	1.26024e-05	1371
bin	1.26736e-05	1443
bin	1.27448e-05	1344
bin	1.2816e-05	1339
bin	1.28872e-05	1274
bin	1.29584e-05	1314
bin	1.30296e-05	1262
bin	1.31008e-05	1270
bin	1.3172e-05	1203
bin	1.32432e-05	1210
bin	1.33144e-05	1257
bin	1.33856e-05	1173
bin	1.34568e-05	1221
bin	1.3528e-05	1179
bin	1.35992e-05	1130
bin	1.36704e-05	1156
bin	1.37416e-05	1128
bin	1.38128e-05	1152
bin	1.3884e-05	1120
bin	1.39552e-05	1150
bin	1.40264e-05	1207
bin	1.40976e-05	1155
bin	1.41688e-05	1091
bin	1.424e-05	1140
bin	1.43112e-05	1129
bin	1.43824e-05	1131
bin	1.44536e-05	1112
bin	1.45248e-05	1074
bin	1.4596e-05	1088
bin	1.46672e-05	1189
bin	1.47384e-05	1086
bin	1.48096e-05	1068
bin	1.48808e-05	1159
bin	1.4952e-05	1171
bin	1.50232e-05	1177
bin	1.50944e-05	1191
bin	1.51656e-05	1124
bin	1.52368e-05	1176
bin	1.5308e-05	1182
bin	1.53792e-05	1193
bin	1.54504e-05	1208
bin	1.55216e-05	1169
bin	1.55928e-05	1176
bin	1.5664e-05	1208
bin	1.57352e-05	1153
bin	1.58064e-05	1129
bin	1.58776e-05	1114
bin	1.59488e-05	1140
bin	1.602e-05	1071
bin	1.60912e-05	1088
bin	1.61624e-05	1092
bin	1.62336e-05	1090
bin	1.63048e-05	1080
bin	1.6376e-05	1104
bin	1.64472e-05	1119
bin	1.65184e-05	1095
bin	1.65896e-05	1093
bin	1.66608e-05	1093
bin	1.6732e-05	1136
bin	1.68032e-05	1118
bin	1.68744e-05	1146
bin	1.69456e-05	1108
bin	1.70168e-05	1053
bin	1.7088e-05	1031
bin	1.71592e-05	1021
bin	1.72304e-05	1021
bin	1.73016e-05	988
bin	1.73728e-05	994
bin	1.7444e-05	974
bin	1.75152e-05	990
bin	1.75864e-05	944
bin	1.76576e-05	929
bin	1.77288e-05	954
bin	1.78e-05	916
bin	1.78712e-05	972
bin	1.79424e-05	944
bin	1.80136e-05	923
bin	1.80848e-05	933
bin	1.8156e-05	951
bin	1.82272e-05	884
bin	1.82984e-05	919
bin	1.83696e-05	911
bin	1.84408e-05	882
bin	1.8512e-05	902
bin	1.85832e-05	904
bin	1.86544e-05	920
bin	1.87256e-05	880
bin	1.87968e-05	916
bin	1.8868e-05	965
bin	1.89392e-05	968
bin	1.90104e-05	984
bin	1.90816e-05	930
bin	1.91528e-05	990
bin	1.9224e-05	969
bin	1.92952e-05	1030
bin	1.93664e-05	981
bin	1.94376e-05	979
bin	1.95088e-05	932
bin	1.958e-05	990
bin	1.96512e-05	979
bin	1.97224e-05	954
bin	1.97936e-05	921
bin	1.98648e-05	934
bin	1.9936e-05	867
bin	2.00072e-05	918
bin	2.00784e-05	882
bin	2.01496e-05	886
bin	2.02208e-05	884
bin	2.0292e-05	895
bin	2.03632e-05	899
bin	2.04344e-05	986
bin	2.05056e-05	999
bin	2.05768e-05	948
bin	2.0648e-05	937
bin	2.07192e-05	933
bin	2.07904e-05	925
bin	2.08616e-05	906
bin	2.09328e-05	880
bin	2.1004e-05	895
bin	2.10752e-05	882
bin	2.11464e-05	874
bin	2.12176e-05	851
bin	2.12888e-05	875
bin	2.136e-05	839
bin	2.14312e-05	834
bin	2.15024e-05	777
bin	2.15736e-05	852
bin	2.16448e-05	822
bin	2.1716e-05	824
bin	2.17872e-05	796
bin	2.18584e-05	825
bin	2.19296e-05	870
bin	2.20008e-05	865
bin	2.2072e-05	849
bin	2.21432e-05	857
bin	2.22144e-05	841
bin	2.22856e-05	843
bin	2.23568e-05	885
bin	2.2428e-05	902
bin	2.24992e-05	823
bin	2.25704e-05	855
bin	2.26416e-05	786
bin	2.27128e-05	835
bin	2.2784e-05	853
bin	2.28552e-05	857
bin	2.29264e-05	858
bin	2.29976e-05	857
bin	2.30688e-05	828
bin	2.314e-05	874
bin	2.32112e-05	820
bin	2.32824e-05	845
bin	2.33536e-05	820
bin	2.34248e-05	853
bin	2.3496e-05	809
bin	2.35672e-05	836
bin	2.36384e-05	818
bin	2.37096e-05	828
bin	2.37808e-05	827
bin	2.3852e-05	837
bin	2.39232e-05	859
bin	2.39944e-05	862
bin	2.40656e-05	866
bin	2.41368e-05	847
bin	2.4208e-05	883
bin	2.42792e-05	884
bin	2.43504e-05	808
bin	2.44216e-05	832
bin	2.44928e-05	787
bin	2.4564e-05	839
bin	2.46352e-05	866
bin	2.47064e-05	864
bin	2.47776e-05	854
bin	2.48488e-05	859
bin	2.492e-05	875
bin	2.49912e-05	847
bin	2.50624e-05	835
bin	2.51336e-05	832
bin	2.52048e-05	794
bin	2.5276e-05	788
bin	2.53472e-05	817
bin	2.54184e-05	794
bin	2.54896e-05	852
bin	2.55608e-05	809
bin	2.5632e-05	832
bin	2.57032e-05	812
bin	2.57744e-05	770
bin	2.58456e-05	732
bin	2.59168e-05	723
bin	2.5988e-05	726
bin	2.60592e-05	682
bin	2.61304e-05	713
bin	2.62016e-05	720
bin	2.62728e-05	733
bin	2.6344e-05	727
bin	2.64152e-05	727
bin	2.64864e-05	747
bin	2.65576e-05	732
bin	2.66288e-05	661
bin	2.67e-05	678
bin	2.67712e-05	699
bin	2.68424e-05	669
bin	2.69136e-05	662
bin	2.69848e-05	686
bin	2.7056e-05	683
bin	2.71272e-05	704
bin	2.71984e-05	729
bin	2.72696e-05	692
bin	2.73408e-05	731
bin	2.7412e-05	742
bin	2.74832e-05	689
bin	2.75544e-05	762
bin	2.76256e-05	778
bin	2.76968e-05	806
bin	2.7768e-05	787
bin	2.78392e-05	793
bin	2.79104e-05	741
bin	2.79816e-05	748
bin	2.80528e-05	779
bin	2.8124e-05	793
bin	2.81952e-05	763
bin	2.82664e-05	805
bin	2.83376e-05	807
bin	2.84088e-05	772
bin	2.848e-05	823
bin	2.85512e-05	811
bin	2.86224e-05	758
bin	2.86936e-05	760
bin	2.87648e-05	758
bin	2.8836e-05	768
bin	2.89072e-05	708
bin	2.89784e-05	759
bin	2.90496e-05	785
bin	2.91208e-05	758
bin	2.9192e-05	770
bin	2.92632e-05	724
bin	2.93344e-05	707
bin	2.94056e-05	746
bin	2.94768e-05	740
bin	2.9548e-05	703
bin	2.96192e-05	738
bin	2.96904e-05	723
bin	2.97616e-05	776
bin	2.98328e-05	748
bin	2.9904e-05	754
bin	2.99752e-05	727
bin	3.00464e-05	726
bin	3.01176e-05	734
bin	3.01888e-05	736
bin	3.026e-05	749
bin	3.03312e-05	761
bin	3.04024e-05	757
bin	3.04736e-05	738
bin	3.05448e-05	753
bin	3.0616e-05	733
bin	3.06872e-05	785
bin	3.07584e-05	762
bin	3.08296e-05	774
bin	3.09008e-05	750
bin	3.0972e-05	768
bin	3.10432e-05	728
bin	3.11144e-05	743
bin	3.11856e-05	763
bin	3.12568e-05	781
bin	3.1328e-05	825
bin	3.13992e-05	824
bin	3.14704e-05	792
bin	3.15416e-05	812
bin	3.16128e-05	766
bin	3.1684e-05	767
bin	3.17552e-05	763
bin	3.18264e-05	750
bin	3.18976e-05	736
bin	3.19688e-05	754
bin	3.204e-05	765
bin	3.21112e-05	777
bin	3.21824e-05	774
bin	3.22536e-05	800
bin	3.23248e-05	859
bin	3.2396e-05	803
bin	3.24672e-05	771
bin	3.25384e-05	786
bin	3.26096e-05	746
bin	3.26808e-05	800
bin	3.2752e-05	779
bin	3.28232e-05	781
bin	3.28944e-05	751
bin	3.29656e-05	748
bin	3.30368e-05	791
bin	3.3108e-05	810
bin	3.31792e-05	824
bin	3.32504e-05	832
bin	3.33216e-05	850
bin	3.33928e-05	840
bin	3.3464e-05	834
bin	3.35352e-05	809
bin	3.36064e-05	802
bin	3.36776e-05	798
bin	3.37488e-05	784
bin	3.382e-05	792
bin	3.38912e-05	790
bin	3.39624e-05	806
bin	3.40336e-05	803
bin	3.41048e-05	795
bin	3.4176e-05	819
bin	3.42472e-05	785
bin	3.43184e-05	823
bin	3.43896e-05	793
bin	3.44608e-05	820
bin	3.4532e-05	801
bin	3.46032e-05	808
bin	3.46744e-05	786
bin	3.47456e-05	816
bin	3.48168e-05	733
bin	3.4888e-05	780
bin	3.49592e-05	794
bin	3.50304e-05	792
bin	3.51016e-05	751
bin	3.51728e-05	768
bin	3.5244e-05	731
bin	3.53152e-05	710
bin	3.53864e-05	774
bin	3.54576e-05	772
bin	3.55288e-05	756
bin	3.56e-05	3125263
statistic Torus3d_bub.timer 	"Life Times"
field count 6291456
field mean 0.000885027501039
field stddev 0.00094078496170701
field sum 5568.1115815768
field sqrsum 10.496349869485
field min 1.64e-07
field max 0.003705629327277
bin	-INF	0
bin	0	6139
bin	8.544e-07	8098
bin	1.7088e-06	9845
bin	2.5632e-06	13233
bin	3.4176e-06	16513
bin	4.272e-06	19417
bin	5.1264e-06	22580
bin	5.9808e-06	25235
bin	6.8352e-06	28441
bin	7.6896e-06	31810
bin	8.544e-06	34416
bin	9.3984e-06	37398
bin	1.02528e-05	32878
bin	1.11072e-05	33142
bin	1.19616e-05	34691
bin	1.2816e-05	36499
bin	1.36704e-05	38304
bin	1.45248e-05	39880
bin	1.53792e-05	41477
bin	1.62336e-05	43364
bin	1.7088e-05	44939
bin	1.79424e-05	46147
bin	1.87968e-05	47301
bin	1.96512e-05	49197
bin	2.05056e-05	51133
bin	2.136e-05	53268
bin	2.22144e-05	55209
bin	2.30688e-05	57865
bin	2.39232e-05	60023
bin	2.47776e-05	62771
bin	2.5632e-05	64685
bin	2.64864e-05	66192
bin	2.73408e-05	67281
bin	2.81952e-05	67623
bin	2.90496e-05	67421
bin	2.9904e-05	67222
bin	3.07584e-05	66465
bin	3.16128e-05	65100
bin	3.24672e-05	63759
bin	3.33216e-05	62634
bin	3.4176e-05	60702
bin	3.50304e-05	59039
bin	3.58848e-05	57475
bin	3.67392e-05	56051
bin	3.75936e-05	53875
bin	3.8448e-05	51928
bin	3.93024e-05	50266
bin	4.01568e-05	47990
bin	4.10112e-05	46401
bin	4.18656e-05	43518
bin	4.272e-05	38999
bin	4.35744e-05	34919
bin	4.44288e-05	31081
bin	4.52832e-05	27888
bin	4.61376e-05	24574
bin	4.6992e-05	21317
bin	4.78464e-05	18529
bin	4.87008e-05	16461
bin	4.95552e-05	14420
bin	5.04096e-05	12532
bin	5.1264e-05	10921
bin	5.21184e-05	9533
bin	5.29728e-05	8485
bin	5.38272e-05	7700
bin	5.46816e-05	7055
bin	5.5536e-05	6721
bin	5.63904e-05	6327
bin	5.72448e-05	5905
bin	5.80992e-05	5662
bin	5.89536e-05	5478
bin	5.9808e-05	5186
bin	6.06624e-05	5080
bin	6.15168e-05	4975
bin	6.23712e-05	4812
bin	6.32256e-05	4710
bin	6.408e-05	4726
bin	6.49344e-05	4699
bin	6.57888e-05	4740
bin	6.66432e-05	4559
bin	6.74976e-05	4593
bin	6.8352e-05	4634
bin	6.92064e-05	4604
bin	7.00608e-05	4476
bin	7.09152e-05	4716
bin	7.17696e-05	4650
bin	7.2624e-05	4555
bin	7.34784e-05	4757
bin	7.43328e-05	4782
bin	7.51872e-05	4782
bin	7.60416e-05	4931
bin	7.6896e-05	5046
bin	7.77504e-05	4958
bin	7.86048e-05	5006
bin	7.94592e-05	5103
bin	8.03136e-05	5288
bin	8.1168e-05	5349
bin	8.20224e-05	5433
bin	8.28768e-05	5670
bin	8.37312e-05	5620
bin	8.45856e-05	5469
bin	8.544e-05	5371
bin	8.62944e-05	4928
bin	8.71488e-05	4688
bin	8.80032e-05	4321
bin	8.88576e-05	3909
bin	8.9712e-05	3544
bin	9.05664e-05	3295
bin	9.14208e-05	3016
bin	9.22752e-05	2853
bin	9.31296e-05	2635
bin	9.3984e-05	2516
bin	9.48384e-05	2386
bin	9.56928e-05	2197
bin	9.65472e-05	2175
bin	9.74016e-05	2047
bin	9.8256e-05	1954
bin	9.91104e-05	1974
bin	9.99648e-05	1987
bin	0.0001008192	1958
bin	0.0001016736	1958
bin	0.000102528	1969
bin	0.0001033824	1918
bin	0.0001042368	1987
bin	0.0001050912	1984
bin	0.0001059456	1981
bin	0.0001068	1971
bin	0.0001076544	1939
bin	0.0001085088	2001
bin	0.0001093632	1994
bin	0.0001102176	2036
bin	0.000111072	1976
bin	0.0001119264	2068
bin	0.0001127808	1989
bin	0.0001136352	2049
bin	0.0001144896	2013
bin	0.000115344	2066
bin	0.0001161984	1996
bin	0.0001170528	2076
bin	0.0001179072	2106
bin	0.0001187616	2127
bin	0.000119616	2184
bin	0.0001204704	2169
bin	0.0001213248	2264
bin	0.0001221792	2221
bin	0.0001230336	2339
bin	0.000123888	2308
bin	0.0001247424	2411
bin	0.0001255968	2391
bin	0.0001264512	2186
bin	0.0001273056	2111
bin	0.00012816	1960
bin	0.0001290144	1965
bin	0.0001298688	1830
bin	0.0001307232	1800
bin	0.0001315776	1679
bin	0.000132432	1691
bin	0.0001332864	1561
bin	0.0001341408	1423
bin	0.0001349952	1386
bin	0.0001358496	1404
bin	0.000136704	1284
bin	0.0001375584	1281
bin	0.0001384128	1266
bin	0.0001392672	1225
bin	0.0001401216	1214
bin	0.000140976	1220
bin	0.0001418304	1265
bin	0.0001426848	1223
bin	0.0001435392	1218
bin	0.0001443936	1167
bin	0.000145248	1208
bin	0.0001461024	1208
bin	0.0001469568	1209
bin	0.0001478112	1253
bin	0.0001486656	1245
bin	0.00014952	1232
bin	0.0001503744	1231
bin	0.0001512288	1233
bin	0.0001520832	1246
bin	0.0001529376	1235
bin	0.000153792	1294
bin	0.0001546464	1280
bin	0.0001555008	1309
bin	0.0001563552	1384
bin	0.0001572096	1474
bin	0.000158064	1474
bin	0.0001589184	1391
bin	0.0001597728	1414
bin	0.0001606272	1418
bin	0.0001614816	1399
bin	0.000162336	1400
bin	0.0001631904	1421
bin	0.0001640448	1518
bin	0.0001648992	1498
bin	0.0001657536	1547
bin	0.000166608	1481
bin	0.0001674624	1487
bin	0.0001683168	1355
bin	0.0001691712	1298
bin	0.0001700256	1210
bin	0.00017088	1188
bin	0.0001717344	1149
bin	0.0001725888	1129
bin	0.0001734432	1102
bin	0.0001742976	986
bin	0.000175152	973
bin	0.0001760064	1001
bin	0.0001768608	969
bin	0.0001777152	990
bin	0.0001785696	965
bin	0.000179424	884
bin	0.0001802784	926
bin	0.0001811328	946
bin	0.0001819872	868
bin	0.0001828416	903
bin	0.000183696	970
bin	0.0001845504	944
bin	0.0001854048	949
bin	0.0001862592	935
bin	0.0001871136	970
bin	0.000187968	979
bin	0.0001888224	889
bin	0.0001896768	916
bin	0.0001905312	995
bin	0.0001913856	951
bin	0.00019224	933
bin	0.0001930944	941
bin	0.0001939488	984
bin	0.0001948032	1048
bin	0.0001956576	1109
bin	0.000196512	1022
bin	0.0001973664	1040
bin	0.0001982208	1012
bin	0.0001990752	1009
bin	0.0001999296	1050
bin	0.000200784	1034
bin	0.0002016384	1110
bin	0.0002024928	1050
bin	0.0002033472	1106
bin	0.0002042016	1085
bin	0.000205056	1084
bin	0.0002059104	1084
bin	0.0002067648	1043
bin	0.0002076192	1065
bin	0.0002084736	1006
bin	0.000209328	1029
bin	0.0002101824	985
bin	0.0002110368	972
bin	0.0002118912	996
bin	0.0002127456	964
bin	0.0002136	917
bin	0.0002144544	833
bin	0.0002153088	853
bin	0.0002161632	856
bin	0.0002170176	801
bin	0.000217872	812
bin	0.0002187264	809
bin	0.0002195808	828
bin	0.0002204352	817
bin	0.0002212896	767
bin	0.000222144	805
bin	0.0002229984	770
bin	0.0002238528	786
bin	0.0002247072	822
bin	0.0002255616	860
bin	0.000226416	844
bin	0.0002272704	818
bin	0.0002281248	874
bin	0.0002289792	851
bin	0.0002298336	833
bin	0.000230688	800
bin	0.0002315424	840
bin	0.0002323968	804
bin	0.0002332512	866
bin	0.0002341056	860
bin	0.00023496	871
bin	0.0002358144	901
bin	0.0002366688	862
bin	0.0002375232	867
bin	0.0002383776	847
bin	0.000239232	879
bin	0.0002400864	901
bin	0.0002409408	873
bin	0.0002417952	913
bin	0.0002426496	917
bin	0.000243504	942
bin	0.0002443584	934
bin	0.0002452128	912
bin	0.0002460672	966
bin	0.0002469216	1022
bin	0.000247776	998
bin	0.0002486304	994
bin	0.0002494848	953
bin	0.0002503392	967
bin	0.0002511936	934
bin	0.000252048	861
bin	0.0002529024	872
bin	0.0002537568	900
bin	0.0002546112	882
bin	0.0002554656	814
bin	0.00025632	805
bin	0.0002571744	816
bin	0.0002580288	803
bin	0.0002588832	806
bin	0.0002597376	816
bin	0.000260592	783
bin	0.0002614464	748
bin	0.0002623008	775
bin	0.0002631552	785
bin	0.0002640096	820
bin	0.000264864	713
bin	0.0002657184	774
bin	0.0002665728	746
bin	0.0002674272	787
bin	0.0002682816	763
bin	0.000269136	771
bin	0.0002699904	763
bin	0.0002708448	764
bin	0.0002716992	743
bin	0.0002725536	743
bin	0.000273408	750
bin	0.0002742624	801
bin	0.0002751168	801
bin	0.0002759712	836
bin	0.0002768256	815
bin	0.00027768	815
bin	0.0002785344	811
bin	0.0002793888	775
bin	0.0002802432	787
bin	0.0002810976	818
bin	0.000281952	788
bin	0.0002828064	829
bin	0.0002836608	777
bin	0.0002845152	826
bin	0.0002853696	862
bin	0.000286224	803
bin	0.0002870784	848
bin	0.0002879328	800
bin	0.0002887872	817
bin	0.0002896416	811
bin	0.000290496	869
bin	0.0002913504	823
bin	0.0002922048	778
bin	0.0002930592	786
bin	0.0002939136	819
bin	0.000294768	749
bin	0.0002956224	724
bin	0.0002964768	711
bin	0.0002973312	736
bin	0.0002981856	662
bin	0.00029904	658
bin	0.0002998944	677
bin	0.0003007488	650
bin	0.0003016032	631
bin	0.0003024576	676
bin	0.000303312	681
bin	0.0003041664	664
bin	0.0003050208	673
bin	0.0003058752	681
bin	0.0003067296	698
bin	0.000307584	722
bin	0.0003084384	697
bin	0.0003092928	707
bin	0.0003101472	742
bin	0.0003110016	719
bin	0.000311856	710
bin	0.0003127104	731
bin	0.0003135648	698
bin	0.0003144192	716
bin	0.0003152736	704
bin	0.000316128	656
bin	0.0003169824	674
bin	0.0003178368	676
bin	0.0003186912	611
bin	0.0003195456	682
bin	0.0003204	725
bin	0.0003212544	712
bin	0.0003221088	693
bin	0.0003229632	736
bin	0.0003238176	757
bin	0.000324672	755
bin	0.0003255264	691
bin	0.0003263808	761
bin	0.0003272352	758
bin	0.0003280896	760
bin	0.000328944	815
bin	0.0003297984	772
bin	0.0003306528	811
bin	0.0003315072	770
bin	0.0003323616	758
bin	0.000333216	767
bin	0.0003340704	730
bin	0.0003349248	758
bin	0.0003357792	683
bin	0.0003366336	690
bin	0.000337488	675
bin	0.0003383424	622
bin	0.0003391968	648
bin	0.0003400512	661
bin	0.0003409056	621
bin	0.00034176	646
bin	0.0003426144	614
bin	0.0003434688	629
bin	0.0003443232	643
bin	0.0003451776	626
bin	0.000346032	610
bin	0.0003468864	564
bin	0.0003477408	599
bin	0.0003485952	594
bin	0.0003494496	630
bin	0.000350304	607
bin	0.0003511584	653
bin	0.0003520128	674
bin	0.0003528672	609
bin	0.0003537216	681
bin	0.000354576	690
bin	0.0003554304	659
bin	0.0003562848	648
bin	0.0003571392	659
bin	0.0003579936	690
bin	0.000358848	694
bin	0.0003597024	723
bin	0.0003605568	694
bin	0.0003614112	688
bin	0.0003622656	698
bin	0.00036312	638
bin	0.0003639744	647
bin	0.0003648288	689
bin	0.0003656832	691
bin	0.0003665376	731
bin	0.000367392	715
bin	0.0003682464	721
bin	0.0003691008	741
bin	0.0003699552	732
bin	0.0003708096	743
bin	0.000371664	741
bin	0.0003725184	735
bin	0.0003733728	717
bin	0.0003742272	677
bin	0.0003750816	684
bin	0.000375936	656
bin	0.0003767904	641
bin	0.0003776448	622
bin	0.0003784992	606
bin	0.0003793536	594
bin	0.000380208	608
bin	0.0003810624	608
bin	0.0003819168	630
bin	0.0003827712	565
bin	0.0003836256	561
bin	0.00038448	580
bin	0.0003853344	585
bin	0.0003861888	549
bin	0.0003870432	591
bin	0.0003878976	631
bin	0.000388752	587
bin	0.0003896064	612
bin	0.0003904608	613
bin	0.0003913152	638
bin	0.0003921696	631
bin	0.000393024	641
bin	0.0003938784	666
bin	0.0003947328	652
bin	0.0003955872	650
bin	0.0003964416	659
bin	0.000397296	691
bin	0.0003981504	690
bin	0.0003990048	676
bin	0.0003998592	663
bin	0.0004007136	645
bin	0.000401568	624
bin	0.0004024224	675
bin	0.0004032768	613
bin	0.0004041312	675
bin	0.0004049856	642
bin	0.00040584	657
bin	0.0004066944	640
bin	0.0004075488	642
bin	0.0004084032	681
bin	0.0004092576	714
bin	0.000410112	702
bin	0.0004109664	695
bin	0.0004118208	687
bin	0.0004126752	685
bin	0.0004135296	699
bin	0.000414384	650
bin	0.0004152384	661
bin	0.0004160928	674
bin	0.0004169472	664
bin	0.0004178016	652
bin	0.000418656	657
bin	0.0004195104	656
bin	0.0004203648	667
bin	0.0004212192	653
bin	0.0004220736	646
bin	0.000422928	615
bin	0.0004237824	628
bin	0.0004246368	644
bin	0.0004254912	651
bin	0.0004263456	653
bin	0.0004272	3136517
