version 2
run Transposition-58-20120710-13:55:35-25483
attr alg 2
attr buf 8
attr configname Transposition
attr datetime 20120710-13:55:35
attr delta 1
attr experiment Transposition
attr ext false
attr inifile altro.ini
attr iterationvars "$buf=8, $ext=false, $ofedge=1, $delta=1, $alg=2"
attr iterationvars2 "$buf=8, $ext=false, $ofedge=1, $delta=1, $alg=2, $repetition=0"
attr measurement "$buf=8, $ext=false, $ofedge=1, $delta=1, $alg=2"
attr network Torus3d_bub
attr ofedge 1
attr processid 25483
attr repetition 0
attr replication #0
attr resultdir altro-results
attr runnumber 58
attr seedset 58

scalar . 	alg 	2
scalar . 	buf 	8
scalar . 	delta 	1
scalar . 	ofedge 	1
scalar Torus3d_bub.timer 	#endTime 	0.004762361999996
scalar Torus3d_bub.timer 	#totalHops 	90005554
scalar Torus3d_bub.timer 	#totalPacks 	6291456
scalar Torus3d_bub.timer 	#totalDerouted 	1970180
scalar Torus3d_bub.timer 	#totalOutFlanked 	0
scalar Torus3d_bub.timer 	#totalCQRed 	1970180
scalar Torus3d_bub.timer 	#LB 	0.000786432
scalar Torus3d_bub.timer 	#ratio 	0.16513486375052
statistic Torus3d_bub.timer 	"Hop Times"
field count 6193152
field mean 0.00014033795965446
field stddev 9.5340931046129e-05
field sum 869.13431550992
field sqrsum 0.17826761724927
field min 3.74222222e-07
field max 0.000927157066666
bin	-INF	0
bin	0	0
bin	7.12e-08	0
bin	1.424e-07	0
bin	2.136e-07	0
bin	2.848e-07	0
bin	3.56e-07	265
bin	4.272e-07	932
bin	4.984e-07	1530
bin	5.696e-07	2355
bin	6.408e-07	3436
bin	7.12e-07	4524
bin	7.832e-07	5355
bin	8.544e-07	6231
bin	9.256e-07	7091
bin	9.968e-07	8000
bin	1.068e-06	8627
bin	1.1392e-06	9379
bin	1.2104e-06	10062
bin	1.2816e-06	10949
bin	1.3528e-06	11974
bin	1.424e-06	13081
bin	1.4952e-06	13956
bin	1.5664e-06	14805
bin	1.6376e-06	15286
bin	1.7088e-06	15759
bin	1.78e-06	15913
bin	1.8512e-06	15755
bin	1.9224e-06	15960
bin	1.9936e-06	15937
bin	2.0648e-06	15609
bin	2.136e-06	15097
bin	2.2072e-06	14947
bin	2.2784e-06	14307
bin	2.3496e-06	13673
bin	2.4208e-06	13413
bin	2.492e-06	13215
bin	2.5632e-06	12570
bin	2.6344e-06	12249
bin	2.7056e-06	11677
bin	2.7768e-06	11371
bin	2.848e-06	10924
bin	2.9192e-06	10600
bin	2.9904e-06	10062
bin	3.0616e-06	9719
bin	3.1328e-06	9228
bin	3.204e-06	8753
bin	3.2752e-06	8419
bin	3.3464e-06	8195
bin	3.4176e-06	7772
bin	3.4888e-06	7470
bin	3.56e-06	7011
bin	3.6312e-06	6621
bin	3.7024e-06	6695
bin	3.7736e-06	6357
bin	3.8448e-06	6004
bin	3.916e-06	5898
bin	3.9872e-06	5621
bin	4.0584e-06	5617
bin	4.1296e-06	5416
bin	4.2008e-06	5186
bin	4.272e-06	4971
bin	4.3432e-06	4808
bin	4.4144e-06	4596
bin	4.4856e-06	4422
bin	4.5568e-06	4347
bin	4.628e-06	4149
bin	4.6992e-06	4152
bin	4.7704e-06	4105
bin	4.8416e-06	3898
bin	4.9128e-06	3830
bin	4.984e-06	3804
bin	5.0552e-06	3882
bin	5.1264e-06	3799
bin	5.1976e-06	3750
bin	5.2688e-06	3746
bin	5.34e-06	3614
bin	5.4112e-06	3550
bin	5.4824e-06	3477
bin	5.5536e-06	3506
bin	5.6248e-06	3476
bin	5.696e-06	3395
bin	5.7672e-06	3131
bin	5.8384e-06	3216
bin	5.9096e-06	3096
bin	5.9808e-06	2996
bin	6.052e-06	3062
bin	6.1232e-06	2822
bin	6.1944e-06	2753
bin	6.2656e-06	2774
bin	6.3368e-06	2681
bin	6.408e-06	2600
bin	6.4792e-06	2573
bin	6.5504e-06	2507
bin	6.6216e-06	2391
bin	6.6928e-06	2401
bin	6.764e-06	2353
bin	6.8352e-06	2411
bin	6.9064e-06	2370
bin	6.9776e-06	2375
bin	7.0488e-06	2288
bin	7.12e-06	2220
bin	7.1912e-06	2146
bin	7.2624e-06	2196
bin	7.3336e-06	2177
bin	7.4048e-06	2081
bin	7.476e-06	2115
bin	7.5472e-06	2105
bin	7.6184e-06	2100
bin	7.6896e-06	2111
bin	7.7608e-06	2102
bin	7.832e-06	2074
bin	7.9032e-06	2139
bin	7.9744e-06	2072
bin	8.0456e-06	2044
bin	8.1168e-06	2034
bin	8.188e-06	2016
bin	8.2592e-06	1866
bin	8.3304e-06	1878
bin	8.4016e-06	1859
bin	8.4728e-06	1877
bin	8.544e-06	1810
bin	8.6152e-06	1830
bin	8.6864e-06	1819
bin	8.7576e-06	1804
bin	8.8288e-06	1782
bin	8.9e-06	1781
bin	8.9712e-06	1823
bin	9.0424e-06	1736
bin	9.1136e-06	1767
bin	9.1848e-06	1774
bin	9.256e-06	1780
bin	9.3272e-06	1806
bin	9.3984e-06	1841
bin	9.4696e-06	1817
bin	9.5408e-06	1815
bin	9.612e-06	1847
bin	9.6832e-06	1825
bin	9.7544e-06	1763
bin	9.8256e-06	1734
bin	9.8968e-06	1705
bin	9.968e-06	1658
bin	1.00392e-05	1600
bin	1.01104e-05	1611
bin	1.01816e-05	1592
bin	1.02528e-05	1625
bin	1.0324e-05	1648
bin	1.03952e-05	1579
bin	1.04664e-05	1645
bin	1.05376e-05	1639
bin	1.06088e-05	1626
bin	1.068e-05	1547
bin	1.07512e-05	1525
bin	1.08224e-05	1534
bin	1.08936e-05	1545
bin	1.09648e-05	1483
bin	1.1036e-05	1429
bin	1.11072e-05	1395
bin	1.11784e-05	1372
bin	1.12496e-05	1376
bin	1.13208e-05	1387
bin	1.1392e-05	1345
bin	1.14632e-05	1302
bin	1.15344e-05	1373
bin	1.16056e-05	1381
bin	1.16768e-05	1394
bin	1.1748e-05	1343
bin	1.18192e-05	1334
bin	1.18904e-05	1295
bin	1.19616e-05	1264
bin	1.20328e-05	1331
bin	1.2104e-05	1301
bin	1.21752e-05	1239
bin	1.22464e-05	1240
bin	1.23176e-05	1257
bin	1.23888e-05	1309
bin	1.246e-05	1391
bin	1.25312e-05	1322
bin	1.26024e-05	1317
bin	1.26736e-05	1350
bin	1.27448e-05	1294
bin	1.2816e-05	1291
bin	1.28872e-05	1224
bin	1.29584e-05	1213
bin	1.30296e-05	1276
bin	1.31008e-05	1269
bin	1.3172e-05	1291
bin	1.32432e-05	1254
bin	1.33144e-05	1225
bin	1.33856e-05	1209
bin	1.34568e-05	1234
bin	1.3528e-05	1218
bin	1.35992e-05	1187
bin	1.36704e-05	1196
bin	1.37416e-05	1146
bin	1.38128e-05	1175
bin	1.3884e-05	1201
bin	1.39552e-05	1186
bin	1.40264e-05	1212
bin	1.40976e-05	1204
bin	1.41688e-05	1171
bin	1.424e-05	1180
bin	1.43112e-05	1218
bin	1.43824e-05	1180
bin	1.44536e-05	1243
bin	1.45248e-05	1173
bin	1.4596e-05	1173
bin	1.46672e-05	1240
bin	1.47384e-05	1235
bin	1.48096e-05	1235
bin	1.48808e-05	1276
bin	1.4952e-05	1252
bin	1.50232e-05	1268
bin	1.50944e-05	1310
bin	1.51656e-05	1295
bin	1.52368e-05	1282
bin	1.5308e-05	1328
bin	1.53792e-05	1289
bin	1.54504e-05	1203
bin	1.55216e-05	1224
bin	1.55928e-05	1173
bin	1.5664e-05	1182
bin	1.57352e-05	1178
bin	1.58064e-05	1194
bin	1.58776e-05	1134
bin	1.59488e-05	1184
bin	1.602e-05	1170
bin	1.60912e-05	1097
bin	1.61624e-05	1155
bin	1.62336e-05	1079
bin	1.63048e-05	1119
bin	1.6376e-05	1058
bin	1.64472e-05	1071
bin	1.65184e-05	1067
bin	1.65896e-05	1022
bin	1.66608e-05	1066
bin	1.6732e-05	1078
bin	1.68032e-05	1047
bin	1.68744e-05	1030
bin	1.69456e-05	1061
bin	1.70168e-05	1098
bin	1.7088e-05	1023
bin	1.71592e-05	1064
bin	1.72304e-05	1042
bin	1.73016e-05	1094
bin	1.73728e-05	1071
bin	1.7444e-05	1045
bin	1.75152e-05	1097
bin	1.75864e-05	1073
bin	1.76576e-05	1054
bin	1.77288e-05	1008
bin	1.78e-05	1044
bin	1.78712e-05	1072
bin	1.79424e-05	1045
bin	1.80136e-05	989
bin	1.80848e-05	1020
bin	1.8156e-05	955
bin	1.82272e-05	907
bin	1.82984e-05	932
bin	1.83696e-05	1012
bin	1.84408e-05	996
bin	1.8512e-05	923
bin	1.85832e-05	945
bin	1.86544e-05	974
bin	1.87256e-05	995
bin	1.87968e-05	924
bin	1.8868e-05	922
bin	1.89392e-05	1018
bin	1.90104e-05	983
bin	1.90816e-05	1030
bin	1.91528e-05	1046
bin	1.9224e-05	1036
bin	1.92952e-05	1025
bin	1.93664e-05	1007
bin	1.94376e-05	963
bin	1.95088e-05	1000
bin	1.958e-05	945
bin	1.96512e-05	961
bin	1.97224e-05	1021
bin	1.97936e-05	1053
bin	1.98648e-05	989
bin	1.9936e-05	1054
bin	2.00072e-05	1044
bin	2.00784e-05	1042
bin	2.01496e-05	1032
bin	2.02208e-05	1026
bin	2.0292e-05	960
bin	2.03632e-05	996
bin	2.04344e-05	910
bin	2.05056e-05	945
bin	2.05768e-05	963
bin	2.0648e-05	962
bin	2.07192e-05	952
bin	2.07904e-05	927
bin	2.08616e-05	943
bin	2.09328e-05	924
bin	2.1004e-05	879
bin	2.10752e-05	872
bin	2.11464e-05	837
bin	2.12176e-05	847
bin	2.12888e-05	810
bin	2.136e-05	810
bin	2.14312e-05	826
bin	2.15024e-05	853
bin	2.15736e-05	855
bin	2.16448e-05	848
bin	2.1716e-05	852
bin	2.17872e-05	811
bin	2.18584e-05	886
bin	2.19296e-05	852
bin	2.20008e-05	873
bin	2.2072e-05	876
bin	2.21432e-05	916
bin	2.22144e-05	918
bin	2.22856e-05	849
bin	2.23568e-05	883
bin	2.2428e-05	884
bin	2.24992e-05	855
bin	2.25704e-05	895
bin	2.26416e-05	908
bin	2.27128e-05	900
bin	2.2784e-05	936
bin	2.28552e-05	914
bin	2.29264e-05	891
bin	2.29976e-05	883
bin	2.30688e-05	862
bin	2.314e-05	827
bin	2.32112e-05	858
bin	2.32824e-05	843
bin	2.33536e-05	838
bin	2.34248e-05	817
bin	2.3496e-05	825
bin	2.35672e-05	814
bin	2.36384e-05	772
bin	2.37096e-05	756
bin	2.37808e-05	716
bin	2.3852e-05	724
bin	2.39232e-05	703
bin	2.39944e-05	748
bin	2.40656e-05	780
bin	2.41368e-05	791
bin	2.4208e-05	812
bin	2.42792e-05	816
bin	2.43504e-05	834
bin	2.44216e-05	825
bin	2.44928e-05	867
bin	2.4564e-05	893
bin	2.46352e-05	899
bin	2.47064e-05	941
bin	2.47776e-05	943
bin	2.48488e-05	937
bin	2.492e-05	939
bin	2.49912e-05	970
bin	2.50624e-05	941
bin	2.51336e-05	925
bin	2.52048e-05	961
bin	2.5276e-05	941
bin	2.53472e-05	928
bin	2.54184e-05	947
bin	2.54896e-05	972
bin	2.55608e-05	944
bin	2.5632e-05	940
bin	2.57032e-05	909
bin	2.57744e-05	929
bin	2.58456e-05	939
bin	2.59168e-05	959
bin	2.5988e-05	963
bin	2.60592e-05	971
bin	2.61304e-05	1015
bin	2.62016e-05	919
bin	2.62728e-05	901
bin	2.6344e-05	897
bin	2.64152e-05	833
bin	2.64864e-05	897
bin	2.65576e-05	928
bin	2.66288e-05	923
bin	2.67e-05	968
bin	2.67712e-05	953
bin	2.68424e-05	893
bin	2.69136e-05	938
bin	2.69848e-05	926
bin	2.7056e-05	924
bin	2.71272e-05	928
bin	2.71984e-05	909
bin	2.72696e-05	961
bin	2.73408e-05	957
bin	2.7412e-05	953
bin	2.74832e-05	904
bin	2.75544e-05	909
bin	2.76256e-05	925
bin	2.76968e-05	928
bin	2.7768e-05	912
bin	2.78392e-05	818
bin	2.79104e-05	824
bin	2.79816e-05	838
bin	2.80528e-05	841
bin	2.8124e-05	888
bin	2.81952e-05	875
bin	2.82664e-05	860
bin	2.83376e-05	828
bin	2.84088e-05	814
bin	2.848e-05	831
bin	2.85512e-05	846
bin	2.86224e-05	836
bin	2.86936e-05	835
bin	2.87648e-05	887
bin	2.8836e-05	880
bin	2.89072e-05	972
bin	2.89784e-05	924
bin	2.90496e-05	874
bin	2.91208e-05	919
bin	2.9192e-05	877
bin	2.92632e-05	861
bin	2.93344e-05	915
bin	2.94056e-05	940
bin	2.94768e-05	927
bin	2.9548e-05	918
bin	2.96192e-05	890
bin	2.96904e-05	891
bin	2.97616e-05	924
bin	2.98328e-05	962
bin	2.9904e-05	875
bin	2.99752e-05	868
bin	3.00464e-05	915
bin	3.01176e-05	871
bin	3.01888e-05	899
bin	3.026e-05	975
bin	3.03312e-05	902
bin	3.04024e-05	893
bin	3.04736e-05	926
bin	3.05448e-05	869
bin	3.0616e-05	843
bin	3.06872e-05	854
bin	3.07584e-05	910
bin	3.08296e-05	895
bin	3.09008e-05	879
bin	3.0972e-05	873
bin	3.10432e-05	828
bin	3.11144e-05	836
bin	3.11856e-05	818
bin	3.12568e-05	803
bin	3.1328e-05	819
bin	3.13992e-05	861
bin	3.14704e-05	798
bin	3.15416e-05	811
bin	3.16128e-05	835
bin	3.1684e-05	871
bin	3.17552e-05	872
bin	3.18264e-05	855
bin	3.18976e-05	861
bin	3.19688e-05	850
bin	3.204e-05	893
bin	3.21112e-05	824
bin	3.21824e-05	812
bin	3.22536e-05	834
bin	3.23248e-05	861
bin	3.2396e-05	798
bin	3.24672e-05	826
bin	3.25384e-05	809
bin	3.26096e-05	764
bin	3.26808e-05	876
bin	3.2752e-05	906
bin	3.28232e-05	864
bin	3.28944e-05	838
bin	3.29656e-05	822
bin	3.30368e-05	798
bin	3.3108e-05	815
bin	3.31792e-05	788
bin	3.32504e-05	765
bin	3.33216e-05	808
bin	3.33928e-05	829
bin	3.3464e-05	861
bin	3.35352e-05	828
bin	3.36064e-05	786
bin	3.36776e-05	765
bin	3.37488e-05	768
bin	3.382e-05	780
bin	3.38912e-05	773
bin	3.39624e-05	796
bin	3.40336e-05	801
bin	3.41048e-05	788
bin	3.4176e-05	788
bin	3.42472e-05	754
bin	3.43184e-05	787
bin	3.43896e-05	801
bin	3.44608e-05	883
bin	3.4532e-05	878
bin	3.46032e-05	836
bin	3.46744e-05	835
bin	3.47456e-05	840
bin	3.48168e-05	863
bin	3.4888e-05	885
bin	3.49592e-05	911
bin	3.50304e-05	829
bin	3.51016e-05	830
bin	3.51728e-05	826
bin	3.5244e-05	857
bin	3.53152e-05	894
bin	3.53864e-05	829
bin	3.54576e-05	859
bin	3.55288e-05	950
bin	3.56e-05	5093906
statistic Torus3d_bub.timer 	"Life Times"
field count 6291456
field mean 0.0019224011881091
field stddev 0.0012585279840157
field sum 12094.702489336
field sqrsum 33.21585999759
field min 1.64e-07
field max 0.004714533999961
bin	-INF	0
bin	0	6592
bin	8.544e-07	8192
bin	1.7088e-06	8721
bin	2.5632e-06	8971
bin	3.4176e-06	9505
bin	4.272e-06	10145
bin	5.1264e-06	10912
bin	5.9808e-06	11805
bin	6.8352e-06	12672
bin	7.6896e-06	13436
bin	8.544e-06	14627
bin	9.3984e-06	15761
bin	1.02528e-05	10079
bin	1.11072e-05	9232
bin	1.19616e-05	10037
bin	1.2816e-05	10633
bin	1.36704e-05	11252
bin	1.45248e-05	11883
bin	1.53792e-05	12410
bin	1.62336e-05	12855
bin	1.7088e-05	13280
bin	1.79424e-05	13634
bin	1.87968e-05	14027
bin	1.96512e-05	14463
bin	2.05056e-05	14996
bin	2.136e-05	15369
bin	2.22144e-05	15694
bin	2.30688e-05	16075
bin	2.39232e-05	16532
bin	2.47776e-05	17020
bin	2.5632e-05	17046
bin	2.64864e-05	17080
bin	2.73408e-05	16496
bin	2.81952e-05	15963
bin	2.90496e-05	15046
bin	2.9904e-05	14321
bin	3.07584e-05	13308
bin	3.16128e-05	12467
bin	3.24672e-05	11704
bin	3.33216e-05	10659
bin	3.4176e-05	9764
bin	3.50304e-05	8867
bin	3.58848e-05	8240
bin	3.67392e-05	7530
bin	3.75936e-05	7193
bin	3.8448e-05	6577
bin	3.93024e-05	6490
bin	4.01568e-05	6128
bin	4.10112e-05	5875
bin	4.18656e-05	5770
bin	4.272e-05	5541
bin	4.35744e-05	5261
bin	4.44288e-05	5101
bin	4.52832e-05	5021
bin	4.61376e-05	4947
bin	4.6992e-05	4868
bin	4.78464e-05	4934
bin	4.87008e-05	4887
bin	4.95552e-05	4835
bin	5.04096e-05	4811
bin	5.1264e-05	4771
bin	5.21184e-05	4718
bin	5.29728e-05	4553
bin	5.38272e-05	4461
bin	5.46816e-05	4296
bin	5.5536e-05	4199
bin	5.63904e-05	4046
bin	5.72448e-05	3790
bin	5.80992e-05	3721
bin	5.89536e-05	3492
bin	5.9808e-05	3338
bin	6.06624e-05	3181
bin	6.15168e-05	3107
bin	6.23712e-05	3088
bin	6.32256e-05	2987
bin	6.408e-05	2942
bin	6.49344e-05	2932
bin	6.57888e-05	2830
bin	6.66432e-05	2664
bin	6.74976e-05	2753
bin	6.8352e-05	2826
bin	6.92064e-05	2684
bin	7.00608e-05	2803
bin	7.09152e-05	2816
bin	7.17696e-05	2730
bin	7.2624e-05	2784
bin	7.34784e-05	2798
bin	7.43328e-05	2781
bin	7.51872e-05	2812
bin	7.60416e-05	2685
bin	7.6896e-05	2608
bin	7.77504e-05	2653
bin	7.86048e-05	2640
bin	7.94592e-05	2546
bin	8.03136e-05	2489
bin	8.1168e-05	2533
bin	8.20224e-05	2591
bin	8.28768e-05	2412
bin	8.37312e-05	2391
bin	8.45856e-05	2390
bin	8.544e-05	2251
bin	8.62944e-05	2161
bin	8.71488e-05	2130
bin	8.80032e-05	2077
bin	8.88576e-05	2022
bin	8.9712e-05	2101
bin	9.05664e-05	2035
bin	9.14208e-05	1982
bin	9.22752e-05	1936
bin	9.31296e-05	1949
bin	9.3984e-05	2019
bin	9.48384e-05	2027
bin	9.56928e-05	1923
bin	9.65472e-05	2053
bin	9.74016e-05	2024
bin	9.8256e-05	1967
bin	9.91104e-05	1953
bin	9.99648e-05	2025
bin	0.0001008192	2044
bin	0.0001016736	2090
bin	0.000102528	2014
bin	0.0001033824	2012
bin	0.0001042368	1970
bin	0.0001050912	1931
bin	0.0001059456	1908
bin	0.0001068	1823
bin	0.0001076544	1827
bin	0.0001085088	1742
bin	0.0001093632	1693
bin	0.0001102176	1768
bin	0.000111072	1716
bin	0.0001119264	1704
bin	0.0001127808	1654
bin	0.0001136352	1626
bin	0.0001144896	1625
bin	0.000115344	1617
bin	0.0001161984	1546
bin	0.0001170528	1634
bin	0.0001179072	1529
bin	0.0001187616	1502
bin	0.000119616	1541
bin	0.0001204704	1514
bin	0.0001213248	1476
bin	0.0001221792	1516
bin	0.0001230336	1523
bin	0.000123888	1592
bin	0.0001247424	1563
bin	0.0001255968	1570
bin	0.0001264512	1524
bin	0.0001273056	1576
bin	0.00012816	1504
bin	0.0001290144	1485
bin	0.0001298688	1493
bin	0.0001307232	1464
bin	0.0001315776	1400
bin	0.000132432	1455
bin	0.0001332864	1421
bin	0.0001341408	1392
bin	0.0001349952	1362
bin	0.0001358496	1320
bin	0.000136704	1321
bin	0.0001375584	1290
bin	0.0001384128	1233
bin	0.0001392672	1288
bin	0.0001401216	1292
bin	0.000140976	1269
bin	0.0001418304	1354
bin	0.0001426848	1331
bin	0.0001435392	1362
bin	0.0001443936	1349
bin	0.000145248	1363
bin	0.0001461024	1352
bin	0.0001469568	1389
bin	0.0001478112	1374
bin	0.0001486656	1381
bin	0.00014952	1302
bin	0.0001503744	1380
bin	0.0001512288	1370
bin	0.0001520832	1306
bin	0.0001529376	1384
bin	0.000153792	1404
bin	0.0001546464	1382
bin	0.0001555008	1319
bin	0.0001563552	1308
bin	0.0001572096	1228
bin	0.000158064	1251
bin	0.0001589184	1204
bin	0.0001597728	1144
bin	0.0001606272	1121
bin	0.0001614816	1139
bin	0.000162336	1114
bin	0.0001631904	1131
bin	0.0001640448	1126
bin	0.0001648992	1102
bin	0.0001657536	1087
bin	0.000166608	1049
bin	0.0001674624	1056
bin	0.0001683168	1074
bin	0.0001691712	1061
bin	0.0001700256	1072
bin	0.00017088	1092
bin	0.0001717344	1099
bin	0.0001725888	1122
bin	0.0001734432	1124
bin	0.0001742976	1124
bin	0.000175152	1084
bin	0.0001760064	1090
bin	0.0001768608	1118
bin	0.0001777152	1077
bin	0.0001785696	1122
bin	0.000179424	1101
bin	0.0001802784	1075
bin	0.0001811328	1085
bin	0.0001819872	1047
bin	0.0001828416	1041
bin	0.000183696	1006
bin	0.0001845504	1008
bin	0.0001854048	1004
bin	0.0001862592	968
bin	0.0001871136	979
bin	0.000187968	878
bin	0.0001888224	961
bin	0.0001896768	996
bin	0.0001905312	984
bin	0.0001913856	978
bin	0.00019224	1029
bin	0.0001930944	1001
bin	0.0001939488	1044
bin	0.0001948032	949
bin	0.0001956576	1021
bin	0.000196512	1045
bin	0.0001973664	1015
bin	0.0001982208	1081
bin	0.0001990752	1066
bin	0.0001999296	1065
bin	0.000200784	1020
bin	0.0002016384	1087
bin	0.0002024928	1133
bin	0.0002033472	1060
bin	0.0002042016	1070
bin	0.000205056	1097
bin	0.0002059104	1036
bin	0.0002067648	1085
bin	0.0002076192	1112
bin	0.0002084736	1028
bin	0.000209328	1095
bin	0.0002101824	1000
bin	0.0002110368	996
bin	0.0002118912	970
bin	0.0002127456	988
bin	0.0002136	950
bin	0.0002144544	955
bin	0.0002153088	991
bin	0.0002161632	1010
bin	0.0002170176	1008
bin	0.000217872	1002
bin	0.0002187264	1065
bin	0.0002195808	1039
bin	0.0002204352	1010
bin	0.0002212896	1054
bin	0.000222144	1078
bin	0.0002229984	1004
bin	0.0002238528	1027
bin	0.0002247072	1059
bin	0.0002255616	1042
bin	0.000226416	1004
bin	0.0002272704	1068
bin	0.0002281248	1102
bin	0.0002289792	1105
bin	0.0002298336	1125
bin	0.000230688	1058
bin	0.0002315424	1058
bin	0.0002323968	966
bin	0.0002332512	973
bin	0.0002341056	929
bin	0.00023496	935
bin	0.0002358144	918
bin	0.0002366688	926
bin	0.0002375232	902
bin	0.0002383776	912
bin	0.000239232	934
bin	0.0002400864	934
bin	0.0002409408	898
bin	0.0002417952	910
bin	0.0002426496	892
bin	0.000243504	912
bin	0.0002443584	874
bin	0.0002452128	897
bin	0.0002460672	875
bin	0.0002469216	912
bin	0.000247776	949
bin	0.0002486304	973
bin	0.0002494848	942
bin	0.0002503392	938
bin	0.0002511936	955
bin	0.000252048	923
bin	0.0002529024	920
bin	0.0002537568	898
bin	0.0002546112	881
bin	0.0002554656	859
bin	0.00025632	850
bin	0.0002571744	851
bin	0.0002580288	793
bin	0.0002588832	809
bin	0.0002597376	812
bin	0.000260592	815
bin	0.0002614464	803
bin	0.0002623008	759
bin	0.0002631552	775
bin	0.0002640096	750
bin	0.000264864	805
bin	0.0002657184	767
bin	0.0002665728	772
bin	0.0002674272	773
bin	0.0002682816	713
bin	0.000269136	755
bin	0.0002699904	755
bin	0.0002708448	791
bin	0.0002716992	784
bin	0.0002725536	819
bin	0.000273408	848
bin	0.0002742624	853
bin	0.0002751168	832
bin	0.0002759712	813
bin	0.0002768256	823
bin	0.00027768	769
bin	0.0002785344	749
bin	0.0002793888	778
bin	0.0002802432	739
bin	0.0002810976	772
bin	0.000281952	729
bin	0.0002828064	707
bin	0.0002836608	695
bin	0.0002845152	687
bin	0.0002853696	703
bin	0.000286224	665
bin	0.0002870784	687
bin	0.0002879328	714
bin	0.0002887872	693
bin	0.0002896416	690
bin	0.000290496	693
bin	0.0002913504	666
bin	0.0002922048	651
bin	0.0002930592	717
bin	0.0002939136	701
bin	0.000294768	747
bin	0.0002956224	746
bin	0.0002964768	719
bin	0.0002973312	760
bin	0.0002981856	760
bin	0.00029904	773
bin	0.0002998944	748
bin	0.0003007488	783
bin	0.0003016032	779
bin	0.0003024576	727
bin	0.000303312	778
bin	0.0003041664	764
bin	0.0003050208	752
bin	0.0003058752	735
bin	0.0003067296	719
bin	0.000307584	704
bin	0.0003084384	718
bin	0.0003092928	711
bin	0.0003101472	702
bin	0.0003110016	743
bin	0.000311856	672
bin	0.0003127104	691
bin	0.0003135648	716
bin	0.0003144192	665
bin	0.0003152736	673
bin	0.000316128	720
bin	0.0003169824	748
bin	0.0003178368	737
bin	0.0003186912	747
bin	0.0003195456	764
bin	0.0003204	793
bin	0.0003212544	828
bin	0.0003221088	836
bin	0.0003229632	838
bin	0.0003238176	873
bin	0.000324672	821
bin	0.0003255264	834
bin	0.0003263808	840
bin	0.0003272352	830
bin	0.0003280896	784
bin	0.000328944	833
bin	0.0003297984	834
bin	0.0003306528	801
bin	0.0003315072	799
bin	0.0003323616	790
bin	0.000333216	840
bin	0.0003340704	740
bin	0.0003349248	731
bin	0.0003357792	773
bin	0.0003366336	757
bin	0.000337488	810
bin	0.0003383424	794
bin	0.0003391968	808
bin	0.0003400512	838
bin	0.0003409056	787
bin	0.00034176	779
bin	0.0003426144	759
bin	0.0003434688	775
bin	0.0003443232	804
bin	0.0003451776	841
bin	0.000346032	860
bin	0.0003468864	871
bin	0.0003477408	904
bin	0.0003485952	876
bin	0.0003494496	888
bin	0.000350304	871
bin	0.0003511584	889
bin	0.0003520128	886
bin	0.0003528672	896
bin	0.0003537216	855
bin	0.000354576	829
bin	0.0003554304	831
bin	0.0003562848	782
bin	0.0003571392	763
bin	0.0003579936	730
bin	0.000358848	780
bin	0.0003597024	737
bin	0.0003605568	740
bin	0.0003614112	723
bin	0.0003622656	744
bin	0.00036312	736
bin	0.0003639744	721
bin	0.0003648288	731
bin	0.0003656832	698
bin	0.0003665376	699
bin	0.000367392	700
bin	0.0003682464	703
bin	0.0003691008	760
bin	0.0003699552	745
bin	0.0003708096	756
bin	0.000371664	842
bin	0.0003725184	822
bin	0.0003733728	841
bin	0.0003742272	845
bin	0.0003750816	850
bin	0.000375936	810
bin	0.0003767904	816
bin	0.0003776448	788
bin	0.0003784992	776
bin	0.0003793536	808
bin	0.000380208	757
bin	0.0003810624	793
bin	0.0003819168	786
bin	0.0003827712	771
bin	0.0003836256	745
bin	0.00038448	785
bin	0.0003853344	729
bin	0.0003861888	764
bin	0.0003870432	736
bin	0.0003878976	685
bin	0.000388752	709
bin	0.0003896064	725
bin	0.0003904608	721
bin	0.0003913152	736
bin	0.0003921696	750
bin	0.000393024	804
bin	0.0003938784	832
bin	0.0003947328	835
bin	0.0003955872	873
bin	0.0003964416	853
bin	0.000397296	833
bin	0.0003981504	809
bin	0.0003990048	820
bin	0.0003998592	808
bin	0.0004007136	808
bin	0.000401568	801
bin	0.0004024224	812
bin	0.0004032768	768
bin	0.0004041312	765
bin	0.0004049856	736
bin	0.00040584	754
bin	0.0004066944	684
bin	0.0004075488	688
bin	0.0004084032	699
bin	0.0004092576	675
bin	0.000410112	717
bin	0.0004109664	705
bin	0.0004118208	707
bin	0.0004126752	700
bin	0.0004135296	719
bin	0.000414384	688
bin	0.0004152384	705
bin	0.0004160928	688
bin	0.0004169472	727
bin	0.0004178016	723
bin	0.000418656	711
bin	0.0004195104	756
bin	0.0004203648	742
bin	0.0004212192	708
bin	0.0004220736	777
bin	0.000422928	773
bin	0.0004237824	729
bin	0.0004246368	703
bin	0.0004254912	690
bin	0.0004263456	671
bin	0.0004272	5119519
