version 2
run Transposition-12-20120710-08:13:05-25259
attr alg 0
attr buf 8
attr configname Transposition
attr datetime 20120710-08:13:05
attr delta 0.8
attr experiment Transposition
attr ext true
attr inifile altro.ini
attr iterationvars "$buf=8, $ext=true, $ofedge=1, $delta=0.8, $alg=0"
attr iterationvars2 "$buf=8, $ext=true, $ofedge=1, $delta=0.8, $alg=0, $repetition=0"
attr measurement "$buf=8, $ext=true, $ofedge=1, $delta=0.8, $alg=0"
attr network Torus3d_bub
attr ofedge 1
attr processid 25259
attr repetition 0
attr replication #0
attr resultdir altro-results
attr runnumber 12
attr seedset 12

scalar . 	alg 	0
scalar . 	buf 	8
scalar . 	delta 	0.8
scalar . 	ofedge 	1
scalar Torus3d_bub.timer 	#endTime 	0.003884522666618
scalar Torus3d_bub.timer 	#totalHops 	75497472
scalar Torus3d_bub.timer 	#totalPacks 	6291456
scalar Torus3d_bub.timer 	#totalDerouted 	0
scalar Torus3d_bub.timer 	#totalOutFlanked 	0
scalar Torus3d_bub.timer 	#totalCQRed 	0
scalar Torus3d_bub.timer 	#LB 	0.000786432
scalar Torus3d_bub.timer 	#ratio 	0.20245267372444
statistic Torus3d_bub.timer 	"Hop Times"
field count 6193152
field mean 9.3656400445005e-05
field stddev 7.7231548351836e-05
field sum 580.02832372879
field sqrsum 0.091263727420781
field min 3.97925925e-07
field max 0.000739082533323
bin	-INF	0
bin	0	0
bin	7.12e-08	0
bin	1.424e-07	0
bin	2.136e-07	0
bin	2.848e-07	0
bin	3.56e-07	41
bin	4.272e-07	923
bin	4.984e-07	1907
bin	5.696e-07	3071
bin	6.408e-07	4164
bin	7.12e-07	5264
bin	7.832e-07	6316
bin	8.544e-07	6977
bin	9.256e-07	7838
bin	9.968e-07	8698
bin	1.068e-06	9738
bin	1.1392e-06	10489
bin	1.2104e-06	11580
bin	1.2816e-06	12689
bin	1.3528e-06	14001
bin	1.424e-06	15207
bin	1.4952e-06	16676
bin	1.5664e-06	17967
bin	1.6376e-06	18657
bin	1.7088e-06	19530
bin	1.78e-06	20350
bin	1.8512e-06	20726
bin	1.9224e-06	21017
bin	1.9936e-06	21287
bin	2.0648e-06	21350
bin	2.136e-06	21310
bin	2.2072e-06	21115
bin	2.2784e-06	20687
bin	2.3496e-06	20159
bin	2.4208e-06	19808
bin	2.492e-06	19229
bin	2.5632e-06	19161
bin	2.6344e-06	18518
bin	2.7056e-06	17736
bin	2.7768e-06	17365
bin	2.848e-06	16952
bin	2.9192e-06	16342
bin	2.9904e-06	15701
bin	3.0616e-06	15349
bin	3.1328e-06	14757
bin	3.204e-06	14153
bin	3.2752e-06	13688
bin	3.3464e-06	13429
bin	3.4176e-06	13160
bin	3.4888e-06	12497
bin	3.56e-06	12375
bin	3.6312e-06	11915
bin	3.7024e-06	11724
bin	3.7736e-06	11193
bin	3.8448e-06	10814
bin	3.916e-06	10381
bin	3.9872e-06	10108
bin	4.0584e-06	9835
bin	4.1296e-06	9592
bin	4.2008e-06	9218
bin	4.272e-06	9052
bin	4.3432e-06	8732
bin	4.4144e-06	8523
bin	4.4856e-06	8314
bin	4.5568e-06	8199
bin	4.628e-06	7827
bin	4.6992e-06	7788
bin	4.7704e-06	7653
bin	4.8416e-06	7612
bin	4.9128e-06	7309
bin	4.984e-06	7227
bin	5.0552e-06	7084
bin	5.1264e-06	6725
bin	5.1976e-06	6656
bin	5.2688e-06	6598
bin	5.34e-06	6452
bin	5.4112e-06	6507
bin	5.4824e-06	6371
bin	5.5536e-06	6090
bin	5.6248e-06	6156
bin	5.696e-06	5984
bin	5.7672e-06	5908
bin	5.8384e-06	5879
bin	5.9096e-06	5735
bin	5.9808e-06	5727
bin	6.052e-06	5682
bin	6.1232e-06	5544
bin	6.1944e-06	5555
bin	6.2656e-06	5514
bin	6.3368e-06	5329
bin	6.408e-06	5298
bin	6.4792e-06	5245
bin	6.5504e-06	5239
bin	6.6216e-06	5145
bin	6.6928e-06	4868
bin	6.764e-06	5011
bin	6.8352e-06	4961
bin	6.9064e-06	4908
bin	6.9776e-06	4713
bin	7.0488e-06	4613
bin	7.12e-06	4670
bin	7.1912e-06	4499
bin	7.2624e-06	4541
bin	7.3336e-06	4370
bin	7.4048e-06	4303
bin	7.476e-06	4353
bin	7.5472e-06	4249
bin	7.6184e-06	4353
bin	7.6896e-06	4325
bin	7.7608e-06	4069
bin	7.832e-06	4137
bin	7.9032e-06	4054
bin	7.9744e-06	3946
bin	8.0456e-06	3932
bin	8.1168e-06	3866
bin	8.188e-06	3854
bin	8.2592e-06	3792
bin	8.3304e-06	3769
bin	8.4016e-06	3806
bin	8.4728e-06	3701
bin	8.544e-06	3626
bin	8.6152e-06	3673
bin	8.6864e-06	3656
bin	8.7576e-06	3596
bin	8.8288e-06	3540
bin	8.9e-06	3535
bin	8.9712e-06	3532
bin	9.0424e-06	3475
bin	9.1136e-06	3474
bin	9.1848e-06	3425
bin	9.256e-06	3434
bin	9.3272e-06	3383
bin	9.3984e-06	3337
bin	9.4696e-06	3271
bin	9.5408e-06	3333
bin	9.612e-06	3346
bin	9.6832e-06	3358
bin	9.7544e-06	3342
bin	9.8256e-06	3333
bin	9.8968e-06	3257
bin	9.968e-06	3286
bin	1.00392e-05	3235
bin	1.01104e-05	3277
bin	1.01816e-05	3130
bin	1.02528e-05	3203
bin	1.0324e-05	3158
bin	1.03952e-05	3199
bin	1.04664e-05	3153
bin	1.05376e-05	3054
bin	1.06088e-05	3042
bin	1.068e-05	3022
bin	1.07512e-05	3030
bin	1.08224e-05	3141
bin	1.08936e-05	2975
bin	1.09648e-05	3040
bin	1.1036e-05	2933
bin	1.11072e-05	3025
bin	1.11784e-05	3018
bin	1.12496e-05	3107
bin	1.13208e-05	3056
bin	1.1392e-05	3080
bin	1.14632e-05	3031
bin	1.15344e-05	3019
bin	1.16056e-05	2976
bin	1.16768e-05	2930
bin	1.1748e-05	3006
bin	1.18192e-05	2956
bin	1.18904e-05	3008
bin	1.19616e-05	2979
bin	1.20328e-05	2945
bin	1.2104e-05	2846
bin	1.21752e-05	2935
bin	1.22464e-05	2878
bin	1.23176e-05	2809
bin	1.23888e-05	2859
bin	1.246e-05	2844
bin	1.25312e-05	2888
bin	1.26024e-05	2925
bin	1.26736e-05	2851
bin	1.27448e-05	2875
bin	1.2816e-05	2807
bin	1.28872e-05	2852
bin	1.29584e-05	2810
bin	1.30296e-05	2879
bin	1.31008e-05	2801
bin	1.3172e-05	2814
bin	1.32432e-05	2722
bin	1.33144e-05	2677
bin	1.33856e-05	2773
bin	1.34568e-05	2613
bin	1.3528e-05	2526
bin	1.35992e-05	2618
bin	1.36704e-05	2528
bin	1.37416e-05	2560
bin	1.38128e-05	2558
bin	1.3884e-05	2568
bin	1.39552e-05	2533
bin	1.40264e-05	2490
bin	1.40976e-05	2634
bin	1.41688e-05	2549
bin	1.424e-05	2502
bin	1.43112e-05	2465
bin	1.43824e-05	2488
bin	1.44536e-05	2523
bin	1.45248e-05	2465
bin	1.4596e-05	2527
bin	1.46672e-05	2534
bin	1.47384e-05	2526
bin	1.48096e-05	2491
bin	1.48808e-05	2430
bin	1.4952e-05	2377
bin	1.50232e-05	2369
bin	1.50944e-05	2364
bin	1.51656e-05	2345
bin	1.52368e-05	2410
bin	1.5308e-05	2343
bin	1.53792e-05	2367
bin	1.54504e-05	2345
bin	1.55216e-05	2319
bin	1.55928e-05	2334
bin	1.5664e-05	2398
bin	1.57352e-05	2438
bin	1.58064e-05	2306
bin	1.58776e-05	2290
bin	1.59488e-05	2351
bin	1.602e-05	2302
bin	1.60912e-05	2263
bin	1.61624e-05	2244
bin	1.62336e-05	2265
bin	1.63048e-05	2144
bin	1.6376e-05	2196
bin	1.64472e-05	2213
bin	1.65184e-05	2187
bin	1.65896e-05	2184
bin	1.66608e-05	2212
bin	1.6732e-05	2230
bin	1.68032e-05	2176
bin	1.68744e-05	2223
bin	1.69456e-05	2254
bin	1.70168e-05	2233
bin	1.7088e-05	2249
bin	1.71592e-05	2176
bin	1.72304e-05	2151
bin	1.73016e-05	2107
bin	1.73728e-05	2074
bin	1.7444e-05	2116
bin	1.75152e-05	2158
bin	1.75864e-05	2161
bin	1.76576e-05	2151
bin	1.77288e-05	2115
bin	1.78e-05	2151
bin	1.78712e-05	2161
bin	1.79424e-05	2157
bin	1.80136e-05	2184
bin	1.80848e-05	2160
bin	1.8156e-05	2180
bin	1.82272e-05	2186
bin	1.82984e-05	2175
bin	1.83696e-05	2200
bin	1.84408e-05	2217
bin	1.8512e-05	2213
bin	1.85832e-05	2168
bin	1.86544e-05	2157
bin	1.87256e-05	2131
bin	1.87968e-05	2185
bin	1.8868e-05	2185
bin	1.89392e-05	2184
bin	1.90104e-05	2143
bin	1.90816e-05	2128
bin	1.91528e-05	2151
bin	1.9224e-05	2128
bin	1.92952e-05	2148
bin	1.93664e-05	2129
bin	1.94376e-05	2071
bin	1.95088e-05	2118
bin	1.958e-05	2090
bin	1.96512e-05	2046
bin	1.97224e-05	2146
bin	1.97936e-05	2038
bin	1.98648e-05	2022
bin	1.9936e-05	2012
bin	2.00072e-05	1996
bin	2.00784e-05	1982
bin	2.01496e-05	1885
bin	2.02208e-05	1943
bin	2.0292e-05	1986
bin	2.03632e-05	1905
bin	2.04344e-05	1916
bin	2.05056e-05	1981
bin	2.05768e-05	1905
bin	2.0648e-05	1984
bin	2.07192e-05	1967
bin	2.07904e-05	1954
bin	2.08616e-05	1915
bin	2.09328e-05	2057
bin	2.1004e-05	2013
bin	2.10752e-05	1997
bin	2.11464e-05	2001
bin	2.12176e-05	2006
bin	2.12888e-05	2026
bin	2.136e-05	2069
bin	2.14312e-05	1978
bin	2.15024e-05	2056
bin	2.15736e-05	2012
bin	2.16448e-05	2054
bin	2.1716e-05	1916
bin	2.17872e-05	1951
bin	2.18584e-05	1870
bin	2.19296e-05	2022
bin	2.20008e-05	2018
bin	2.2072e-05	1942
bin	2.21432e-05	1959
bin	2.22144e-05	1834
bin	2.22856e-05	2006
bin	2.23568e-05	1957
bin	2.2428e-05	1939
bin	2.24992e-05	1954
bin	2.25704e-05	1877
bin	2.26416e-05	1897
bin	2.27128e-05	1969
bin	2.2784e-05	1982
bin	2.28552e-05	1907
bin	2.29264e-05	1942
bin	2.29976e-05	1900
bin	2.30688e-05	1868
bin	2.314e-05	1854
bin	2.32112e-05	1908
bin	2.32824e-05	1861
bin	2.33536e-05	1903
bin	2.34248e-05	1926
bin	2.3496e-05	1850
bin	2.35672e-05	1900
bin	2.36384e-05	1877
bin	2.37096e-05	1898
bin	2.37808e-05	1847
bin	2.3852e-05	1914
bin	2.39232e-05	2029
bin	2.39944e-05	1979
bin	2.40656e-05	1908
bin	2.41368e-05	1932
bin	2.4208e-05	1873
bin	2.42792e-05	1807
bin	2.43504e-05	1864
bin	2.44216e-05	1856
bin	2.44928e-05	1856
bin	2.4564e-05	1771
bin	2.46352e-05	1846
bin	2.47064e-05	1846
bin	2.47776e-05	1882
bin	2.48488e-05	1896
bin	2.492e-05	1873
bin	2.49912e-05	1858
bin	2.50624e-05	1823
bin	2.51336e-05	1810
bin	2.52048e-05	1791
bin	2.5276e-05	1793
bin	2.53472e-05	1831
bin	2.54184e-05	1803
bin	2.54896e-05	1771
bin	2.55608e-05	1806
bin	2.5632e-05	1760
bin	2.57032e-05	1821
bin	2.57744e-05	1767
bin	2.58456e-05	1788
bin	2.59168e-05	1755
bin	2.5988e-05	1728
bin	2.60592e-05	1782
bin	2.61304e-05	1669
bin	2.62016e-05	1714
bin	2.62728e-05	1694
bin	2.6344e-05	1676
bin	2.64152e-05	1753
bin	2.64864e-05	1729
bin	2.65576e-05	1751
bin	2.66288e-05	1708
bin	2.67e-05	1729
bin	2.67712e-05	1752
bin	2.68424e-05	1694
bin	2.69136e-05	1715
bin	2.69848e-05	1722
bin	2.7056e-05	1654
bin	2.71272e-05	1724
bin	2.71984e-05	1649
bin	2.72696e-05	1668
bin	2.73408e-05	1703
bin	2.7412e-05	1751
bin	2.74832e-05	1747
bin	2.75544e-05	1717
bin	2.76256e-05	1750
bin	2.76968e-05	1734
bin	2.7768e-05	1697
bin	2.78392e-05	1609
bin	2.79104e-05	1679
bin	2.79816e-05	1587
bin	2.80528e-05	1633
bin	2.8124e-05	1658
bin	2.81952e-05	1579
bin	2.82664e-05	1600
bin	2.83376e-05	1632
bin	2.84088e-05	1603
bin	2.848e-05	1590
bin	2.85512e-05	1623
bin	2.86224e-05	1654
bin	2.86936e-05	1652
bin	2.87648e-05	1600
bin	2.8836e-05	1589
bin	2.89072e-05	1663
bin	2.89784e-05	1676
bin	2.90496e-05	1679
bin	2.91208e-05	1629
bin	2.9192e-05	1631
bin	2.92632e-05	1588
bin	2.93344e-05	1621
bin	2.94056e-05	1571
bin	2.94768e-05	1606
bin	2.9548e-05	1527
bin	2.96192e-05	1511
bin	2.96904e-05	1506
bin	2.97616e-05	1467
bin	2.98328e-05	1481
bin	2.9904e-05	1601
bin	2.99752e-05	1546
bin	3.00464e-05	1586
bin	3.01176e-05	1559
bin	3.01888e-05	1537
bin	3.026e-05	1554
bin	3.03312e-05	1595
bin	3.04024e-05	1685
bin	3.04736e-05	1616
bin	3.05448e-05	1646
bin	3.0616e-05	1571
bin	3.06872e-05	1651
bin	3.07584e-05	1646
bin	3.08296e-05	1657
bin	3.09008e-05	1654
bin	3.0972e-05	1605
bin	3.10432e-05	1632
bin	3.11144e-05	1654
bin	3.11856e-05	1644
bin	3.12568e-05	1656
bin	3.1328e-05	1632
bin	3.13992e-05	1591
bin	3.14704e-05	1630
bin	3.15416e-05	1561
bin	3.16128e-05	1604
bin	3.1684e-05	1607
bin	3.17552e-05	1583
bin	3.18264e-05	1598
bin	3.18976e-05	1542
bin	3.19688e-05	1591
bin	3.204e-05	1555
bin	3.21112e-05	1593
bin	3.21824e-05	1553
bin	3.22536e-05	1556
bin	3.23248e-05	1539
bin	3.2396e-05	1580
bin	3.24672e-05	1521
bin	3.25384e-05	1608
bin	3.26096e-05	1575
bin	3.26808e-05	1632
bin	3.2752e-05	1554
bin	3.28232e-05	1589
bin	3.28944e-05	1507
bin	3.29656e-05	1533
bin	3.30368e-05	1583
bin	3.3108e-05	1619
bin	3.31792e-05	1562
bin	3.32504e-05	1577
bin	3.33216e-05	1583
bin	3.33928e-05	1561
bin	3.3464e-05	1522
bin	3.35352e-05	1540
bin	3.36064e-05	1597
bin	3.36776e-05	1599
bin	3.37488e-05	1624
bin	3.382e-05	1511
bin	3.38912e-05	1584
bin	3.39624e-05	1589
bin	3.40336e-05	1640
bin	3.41048e-05	1626
bin	3.4176e-05	1648
bin	3.42472e-05	1655
bin	3.43184e-05	1693
bin	3.43896e-05	1622
bin	3.44608e-05	1575
bin	3.4532e-05	1623
bin	3.46032e-05	1608
bin	3.46744e-05	1655
bin	3.47456e-05	1632
bin	3.48168e-05	1575
bin	3.4888e-05	1557
bin	3.49592e-05	1617
bin	3.50304e-05	1614
bin	3.51016e-05	1627
bin	3.51728e-05	1611
bin	3.5244e-05	1538
bin	3.53152e-05	1593
bin	3.53864e-05	1630
bin	3.54576e-05	1683
bin	3.55288e-05	1631
bin	3.56e-05	4308361
statistic Torus3d_bub.timer 	"Life Times"
field count 6291456
field mean 0.0011122616779511
field stddev 0.0009133593942808
field sum 6997.7454073153
field sqrsum 13.031815506378
field min 3.77331845e-07
field max 0.003828162666616
bin	-INF	0
bin	0	6144
bin	8.544e-07	8192
bin	1.7088e-06	8605
bin	2.5632e-06	9427
bin	3.4176e-06	10266
bin	4.272e-06	11116
bin	5.1264e-06	12307
bin	5.9808e-06	13420
bin	6.8352e-06	14836
bin	7.6896e-06	16221
bin	8.544e-06	17628
bin	9.3984e-06	19171
bin	1.02528e-05	14462
bin	1.11072e-05	13261
bin	1.19616e-05	14434
bin	1.2816e-05	15093
bin	1.36704e-05	15645
bin	1.45248e-05	16352
bin	1.53792e-05	17193
bin	1.62336e-05	17887
bin	1.7088e-05	18350
bin	1.79424e-05	18599
bin	1.87968e-05	19207
bin	1.96512e-05	19699
bin	2.05056e-05	20210
bin	2.136e-05	20375
bin	2.22144e-05	20652
bin	2.30688e-05	21180
bin	2.39232e-05	21618
bin	2.47776e-05	22010
bin	2.5632e-05	22182
bin	2.64864e-05	22346
bin	2.73408e-05	22138
bin	2.81952e-05	22214
bin	2.90496e-05	22012
bin	2.9904e-05	22022
bin	3.07584e-05	21724
bin	3.16128e-05	20929
bin	3.24672e-05	20236
bin	3.33216e-05	19424
bin	3.4176e-05	18559
bin	3.50304e-05	17462
bin	3.58848e-05	16722
bin	3.67392e-05	15782
bin	3.75936e-05	14762
bin	3.8448e-05	13738
bin	3.93024e-05	12741
bin	4.01568e-05	12030
bin	4.10112e-05	11414
bin	4.18656e-05	10664
bin	4.272e-05	10097
bin	4.35744e-05	9828
bin	4.44288e-05	9145
bin	4.52832e-05	8727
bin	4.61376e-05	8482
bin	4.6992e-05	8256
bin	4.78464e-05	8054
bin	4.87008e-05	7974
bin	4.95552e-05	7762
bin	5.04096e-05	7617
bin	5.1264e-05	7425
bin	5.21184e-05	7464
bin	5.29728e-05	7248
bin	5.38272e-05	7348
bin	5.46816e-05	7184
bin	5.5536e-05	7054
bin	5.63904e-05	6989
bin	5.72448e-05	6772
bin	5.80992e-05	7010
bin	5.89536e-05	6958
bin	5.9808e-05	7068
bin	6.06624e-05	6886
bin	6.15168e-05	7036
bin	6.23712e-05	7095
bin	6.32256e-05	7000
bin	6.408e-05	6765
bin	6.49344e-05	6699
bin	6.57888e-05	6542
bin	6.66432e-05	6447
bin	6.74976e-05	6220
bin	6.8352e-05	6079
bin	6.92064e-05	5915
bin	7.00608e-05	5707
bin	7.09152e-05	5474
bin	7.17696e-05	5192
bin	7.2624e-05	5270
bin	7.34784e-05	5038
bin	7.43328e-05	4885
bin	7.51872e-05	4906
bin	7.60416e-05	4875
bin	7.6896e-05	4721
bin	7.77504e-05	4698
bin	7.86048e-05	4599
bin	7.94592e-05	4504
bin	8.03136e-05	4443
bin	8.1168e-05	4419
bin	8.20224e-05	4406
bin	8.28768e-05	4469
bin	8.37312e-05	4426
bin	8.45856e-05	4575
bin	8.544e-05	4491
bin	8.62944e-05	4423
bin	8.71488e-05	4516
bin	8.80032e-05	4478
bin	8.88576e-05	4585
bin	8.9712e-05	4480
bin	9.05664e-05	4642
bin	9.14208e-05	4513
bin	9.22752e-05	4592
bin	9.31296e-05	4535
bin	9.3984e-05	4439
bin	9.48384e-05	4391
bin	9.56928e-05	4460
bin	9.65472e-05	4376
bin	9.74016e-05	4238
bin	9.8256e-05	4108
bin	9.91104e-05	4162
bin	9.99648e-05	4019
bin	0.0001008192	3966
bin	0.0001016736	3752
bin	0.000102528	3873
bin	0.0001033824	3694
bin	0.0001042368	3681
bin	0.0001050912	3625
bin	0.0001059456	3540
bin	0.0001068	3437
bin	0.0001076544	3366
bin	0.0001085088	3298
bin	0.0001093632	3427
bin	0.0001102176	3356
bin	0.000111072	3331
bin	0.0001119264	3319
bin	0.0001127808	3391
bin	0.0001136352	3423
bin	0.0001144896	3327
bin	0.000115344	3404
bin	0.0001161984	3354
bin	0.0001170528	3504
bin	0.0001179072	3435
bin	0.0001187616	3484
bin	0.000119616	3406
bin	0.0001204704	3472
bin	0.0001213248	3411
bin	0.0001221792	3423
bin	0.0001230336	3310
bin	0.000123888	3502
bin	0.0001247424	3466
bin	0.0001255968	3508
bin	0.0001264512	3420
bin	0.0001273056	3405
bin	0.00012816	3435
bin	0.0001290144	3392
bin	0.0001298688	3381
bin	0.0001307232	3226
bin	0.0001315776	3178
bin	0.000132432	3054
bin	0.0001332864	3004
bin	0.0001341408	2963
bin	0.0001349952	2997
bin	0.0001358496	2892
bin	0.000136704	2856
bin	0.0001375584	2887
bin	0.0001384128	2751
bin	0.0001392672	2867
bin	0.0001401216	2774
bin	0.000140976	2775
bin	0.0001418304	2803
bin	0.0001426848	2765
bin	0.0001435392	2799
bin	0.0001443936	2802
bin	0.000145248	2828
bin	0.0001461024	2883
bin	0.0001469568	2916
bin	0.0001478112	2858
bin	0.0001486656	2805
bin	0.00014952	2828
bin	0.0001503744	2882
bin	0.0001512288	2793
bin	0.0001520832	2827
bin	0.0001529376	2891
bin	0.000153792	2945
bin	0.0001546464	2961
bin	0.0001555008	2960
bin	0.0001563552	3004
bin	0.0001572096	2980
bin	0.000158064	2991
bin	0.0001589184	2900
bin	0.0001597728	2845
bin	0.0001606272	2873
bin	0.0001614816	2783
bin	0.000162336	2712
bin	0.0001631904	2626
bin	0.0001640448	2559
bin	0.0001648992	2530
bin	0.0001657536	2534
bin	0.000166608	2427
bin	0.0001674624	2405
bin	0.0001683168	2413
bin	0.0001691712	2470
bin	0.0001700256	2364
bin	0.00017088	2396
bin	0.0001717344	2441
bin	0.0001725888	2324
bin	0.0001734432	2437
bin	0.0001742976	2394
bin	0.000175152	2385
bin	0.0001760064	2320
bin	0.0001768608	2440
bin	0.0001777152	2393
bin	0.0001785696	2469
bin	0.000179424	2413
bin	0.0001802784	2452
bin	0.0001811328	2488
bin	0.0001819872	2510
bin	0.0001828416	2524
bin	0.000183696	2562
bin	0.0001845504	2472
bin	0.0001854048	2549
bin	0.0001862592	2471
bin	0.0001871136	2499
bin	0.000187968	2430
bin	0.0001888224	2403
bin	0.0001896768	2486
bin	0.0001905312	2391
bin	0.0001913856	2394
bin	0.00019224	2383
bin	0.0001930944	2381
bin	0.0001939488	2283
bin	0.0001948032	2258
bin	0.0001956576	2252
bin	0.000196512	2211
bin	0.0001973664	2110
bin	0.0001982208	2070
bin	0.0001990752	2024
bin	0.0001999296	2168
bin	0.000200784	2120
bin	0.0002016384	2120
bin	0.0002024928	2095
bin	0.0002033472	2169
bin	0.0002042016	2126
bin	0.000205056	2181
bin	0.0002059104	2228
bin	0.0002067648	2229
bin	0.0002076192	2148
bin	0.0002084736	2194
bin	0.000209328	2181
bin	0.0002101824	2207
bin	0.0002110368	2193
bin	0.0002118912	2207
bin	0.0002127456	2210
bin	0.0002136	2249
bin	0.0002144544	2190
bin	0.0002153088	2321
bin	0.0002161632	2342
bin	0.0002170176	2360
bin	0.000217872	2337
bin	0.0002187264	2390
bin	0.0002195808	2433
bin	0.0002204352	2421
bin	0.0002212896	2458
bin	0.000222144	2332
bin	0.0002229984	2267
bin	0.0002238528	2245
bin	0.0002247072	2213
bin	0.0002255616	2143
bin	0.000226416	2102
bin	0.0002272704	2065
bin	0.0002281248	2065
bin	0.0002289792	2073
bin	0.0002298336	2040
bin	0.000230688	2041
bin	0.0002315424	2024
bin	0.0002323968	2008
bin	0.0002332512	2000
bin	0.0002341056	1991
bin	0.00023496	1948
bin	0.0002358144	1976
bin	0.0002366688	1989
bin	0.0002375232	1920
bin	0.0002383776	2030
bin	0.000239232	2095
bin	0.0002400864	2118
bin	0.0002409408	2141
bin	0.0002417952	2164
bin	0.0002426496	2123
bin	0.000243504	2211
bin	0.0002443584	2166
bin	0.0002452128	2118
bin	0.0002460672	2110
bin	0.0002469216	2236
bin	0.000247776	2258
bin	0.0002486304	2258
bin	0.0002494848	2154
bin	0.0002503392	2253
bin	0.0002511936	2215
bin	0.000252048	2175
bin	0.0002529024	2157
bin	0.0002537568	2214
bin	0.0002546112	2068
bin	0.0002554656	2007
bin	0.00025632	1993
bin	0.0002571744	1959
bin	0.0002580288	1877
bin	0.0002588832	1901
bin	0.0002597376	1897
bin	0.000260592	1889
bin	0.0002614464	1872
bin	0.0002623008	1799
bin	0.0002631552	1806
bin	0.0002640096	1819
bin	0.000264864	1867
bin	0.0002657184	1862
bin	0.0002665728	1866
bin	0.0002674272	1900
bin	0.0002682816	1960
bin	0.000269136	1914
bin	0.0002699904	2048
bin	0.0002708448	1947
bin	0.0002716992	1931
bin	0.0002725536	2014
bin	0.000273408	2057
bin	0.0002742624	2074
bin	0.0002751168	2067
bin	0.0002759712	2163
bin	0.0002768256	2132
bin	0.00027768	2141
bin	0.0002785344	2094
bin	0.0002793888	2069
bin	0.0002802432	2105
bin	0.0002810976	2088
bin	0.000281952	2023
bin	0.0002828064	2013
bin	0.0002836608	1967
bin	0.0002845152	1927
bin	0.0002853696	1926
bin	0.000286224	1912
bin	0.0002870784	1779
bin	0.0002879328	1768
bin	0.0002887872	1867
bin	0.0002896416	1788
bin	0.000290496	1739
bin	0.0002913504	1748
bin	0.0002922048	1786
bin	0.0002930592	1789
bin	0.0002939136	1686
bin	0.000294768	1740
bin	0.0002956224	1715
bin	0.0002964768	1774
bin	0.0002973312	1712
bin	0.0002981856	1706
bin	0.00029904	1852
bin	0.0002998944	1796
bin	0.0003007488	1901
bin	0.0003016032	1887
bin	0.0003024576	1888
bin	0.000303312	1925
bin	0.0003041664	1945
bin	0.0003050208	1902
bin	0.0003058752	1910
bin	0.0003067296	1906
bin	0.000307584	1946
bin	0.0003084384	1917
bin	0.0003092928	1979
bin	0.0003101472	1924
bin	0.0003110016	1935
bin	0.000311856	1915
bin	0.0003127104	1895
bin	0.0003135648	1914
bin	0.0003144192	1908
bin	0.0003152736	1930
bin	0.000316128	1839
bin	0.0003169824	1867
bin	0.0003178368	1840
bin	0.0003186912	1750
bin	0.0003195456	1818
bin	0.0003204	1796
bin	0.0003212544	1784
bin	0.0003221088	1727
bin	0.0003229632	1732
bin	0.0003238176	1664
bin	0.000324672	1743
bin	0.0003255264	1706
bin	0.0003263808	1740
bin	0.0003272352	1733
bin	0.0003280896	1699
bin	0.000328944	1752
bin	0.0003297984	1794
bin	0.0003306528	1800
bin	0.0003315072	1802
bin	0.0003323616	1742
bin	0.000333216	1699
bin	0.0003340704	1795
bin	0.0003349248	1772
bin	0.0003357792	1885
bin	0.0003366336	1845
bin	0.000337488	1805
bin	0.0003383424	1820
bin	0.0003391968	1830
bin	0.0003400512	1843
bin	0.0003409056	1824
bin	0.00034176	1780
bin	0.0003426144	1839
bin	0.0003434688	1902
bin	0.0003443232	1893
bin	0.0003451776	1846
bin	0.000346032	1831
bin	0.0003468864	1815
bin	0.0003477408	1761
bin	0.0003485952	1787
bin	0.0003494496	1751
bin	0.000350304	1698
bin	0.0003511584	1717
bin	0.0003520128	1680
bin	0.0003528672	1694
bin	0.0003537216	1632
bin	0.000354576	1695
bin	0.0003554304	1626
bin	0.0003562848	1740
bin	0.0003571392	1634
bin	0.0003579936	1609
bin	0.000358848	1683
bin	0.0003597024	1705
bin	0.0003605568	1694
bin	0.0003614112	1703
bin	0.0003622656	1688
bin	0.00036312	1744
bin	0.0003639744	1730
bin	0.0003648288	1750
bin	0.0003656832	1770
bin	0.0003665376	1796
bin	0.000367392	1682
bin	0.0003682464	1714
bin	0.0003691008	1732
bin	0.0003699552	1827
bin	0.0003708096	1783
bin	0.000371664	1763
bin	0.0003725184	1730
bin	0.0003733728	1802
bin	0.0003742272	1765
bin	0.0003750816	1761
bin	0.000375936	1762
bin	0.0003767904	1787
bin	0.0003776448	1723
bin	0.0003784992	1722
bin	0.0003793536	1658
bin	0.000380208	1740
bin	0.0003810624	1677
bin	0.0003819168	1624
bin	0.0003827712	1664
bin	0.0003836256	1633
bin	0.00038448	1663
bin	0.0003853344	1642
bin	0.0003861888	1682
bin	0.0003870432	1657
bin	0.0003878976	1658
bin	0.000388752	1677
bin	0.0003896064	1613
bin	0.0003904608	1620
bin	0.0003913152	1696
bin	0.0003921696	1706
bin	0.000393024	1707
bin	0.0003938784	1692
bin	0.0003947328	1743
bin	0.0003955872	1790
bin	0.0003964416	1783
bin	0.000397296	1789
bin	0.0003981504	1801
bin	0.0003990048	1770
bin	0.0003998592	1818
bin	0.0004007136	1784
bin	0.000401568	1705
bin	0.0004024224	1730
bin	0.0004032768	1757
bin	0.0004041312	1715
bin	0.0004049856	1761
bin	0.00040584	1694
bin	0.0004066944	1672
bin	0.0004075488	1652
bin	0.0004084032	1648
bin	0.0004092576	1600
bin	0.000410112	1534
bin	0.0004109664	1556
bin	0.0004118208	1519
bin	0.0004126752	1581
bin	0.0004135296	1617
bin	0.000414384	1578
bin	0.0004152384	1540
bin	0.0004160928	1545
bin	0.0004169472	1513
bin	0.0004178016	1583
bin	0.000418656	1517
bin	0.0004195104	1489
bin	0.0004203648	1568
bin	0.0004212192	1565
bin	0.0004220736	1570
bin	0.000422928	1574
bin	0.0004237824	1659
bin	0.0004246368	1626
bin	0.0004254912	1650
bin	0.0004263456	1630
bin	0.0004272	4221407
