version 2
run Transposition-14-20120710-08:21:27-25268
attr alg 2
attr buf 8
attr configname Transposition
attr datetime 20120710-08:21:27
attr delta 0.8
attr experiment Transposition
attr ext true
attr inifile altro.ini
attr iterationvars "$buf=8, $ext=true, $ofedge=1, $delta=0.8, $alg=2"
attr iterationvars2 "$buf=8, $ext=true, $ofedge=1, $delta=0.8, $alg=2, $repetition=0"
attr measurement "$buf=8, $ext=true, $ofedge=1, $delta=0.8, $alg=2"
attr network Torus3d_bub
attr ofedge 1
attr processid 25268
attr repetition 0
attr replication #0
attr resultdir altro-results
attr runnumber 14
attr seedset 14

scalar . 	alg 	2
scalar . 	buf 	8
scalar . 	delta 	0.8
scalar . 	ofedge 	1
scalar Torus3d_bub.timer 	#endTime 	0.004383720333332
scalar Torus3d_bub.timer 	#totalHops 	89386196
scalar Torus3d_bub.timer 	#totalPacks 	6291456
scalar Torus3d_bub.timer 	#totalDerouted 	1903964
scalar Torus3d_bub.timer 	#totalOutFlanked 	0
scalar Torus3d_bub.timer 	#totalCQRed 	1903964
scalar Torus3d_bub.timer 	#LB 	0.000786432
scalar Torus3d_bub.timer 	#ratio 	0.17939830559452
statistic Torus3d_bub.timer 	"Hop Times"
field count 6193152
field mean 0.00011162444519725
field stddev 8.7445512929067e-05
field sum 691.30715602221
field sqrsum 0.12452405531697
field min 3.97925925e-07
field max 0.000861267733333
bin	-INF	0
bin	0	0
bin	7.12e-08	0
bin	1.424e-07	0
bin	2.136e-07	0
bin	2.848e-07	0
bin	3.56e-07	29
bin	4.272e-07	768
bin	4.984e-07	1712
bin	5.696e-07	2850
bin	6.408e-07	4487
bin	7.12e-07	6354
bin	7.832e-07	7989
bin	8.544e-07	9348
bin	9.256e-07	10693
bin	9.968e-07	11901
bin	1.068e-06	12901
bin	1.1392e-06	13813
bin	1.2104e-06	15158
bin	1.2816e-06	16453
bin	1.3528e-06	18450
bin	1.424e-06	20493
bin	1.4952e-06	22648
bin	1.5664e-06	24385
bin	1.6376e-06	26065
bin	1.7088e-06	27295
bin	1.78e-06	27958
bin	1.8512e-06	28629
bin	1.9224e-06	28793
bin	1.9936e-06	29248
bin	2.0648e-06	28961
bin	2.136e-06	28493
bin	2.2072e-06	28075
bin	2.2784e-06	27335
bin	2.3496e-06	26397
bin	2.4208e-06	25750
bin	2.492e-06	24673
bin	2.5632e-06	23660
bin	2.6344e-06	22702
bin	2.7056e-06	21749
bin	2.7768e-06	20836
bin	2.848e-06	20055
bin	2.9192e-06	19350
bin	2.9904e-06	18565
bin	3.0616e-06	17870
bin	3.1328e-06	17084
bin	3.204e-06	16171
bin	3.2752e-06	15769
bin	3.3464e-06	14884
bin	3.4176e-06	14313
bin	3.4888e-06	13851
bin	3.56e-06	13221
bin	3.6312e-06	12583
bin	3.7024e-06	11925
bin	3.7736e-06	11603
bin	3.8448e-06	10970
bin	3.916e-06	10192
bin	3.9872e-06	9975
bin	4.0584e-06	9482
bin	4.1296e-06	9170
bin	4.2008e-06	8687
bin	4.272e-06	8320
bin	4.3432e-06	7985
bin	4.4144e-06	7834
bin	4.4856e-06	7594
bin	4.5568e-06	7269
bin	4.628e-06	7160
bin	4.6992e-06	6789
bin	4.7704e-06	6700
bin	4.8416e-06	6525
bin	4.9128e-06	6459
bin	4.984e-06	6146
bin	5.0552e-06	6043
bin	5.1264e-06	5940
bin	5.1976e-06	5762
bin	5.2688e-06	5623
bin	5.34e-06	5513
bin	5.4112e-06	5358
bin	5.4824e-06	5096
bin	5.5536e-06	5092
bin	5.6248e-06	4956
bin	5.696e-06	4850
bin	5.7672e-06	4803
bin	5.8384e-06	4684
bin	5.9096e-06	4665
bin	5.9808e-06	4752
bin	6.052e-06	4592
bin	6.1232e-06	4444
bin	6.1944e-06	4366
bin	6.2656e-06	4150
bin	6.3368e-06	4079
bin	6.408e-06	4060
bin	6.4792e-06	3949
bin	6.5504e-06	3834
bin	6.6216e-06	3809
bin	6.6928e-06	3613
bin	6.764e-06	3641
bin	6.8352e-06	3576
bin	6.9064e-06	3468
bin	6.9776e-06	3343
bin	7.0488e-06	3330
bin	7.12e-06	3304
bin	7.1912e-06	3191
bin	7.2624e-06	3218
bin	7.3336e-06	3141
bin	7.4048e-06	3112
bin	7.476e-06	3004
bin	7.5472e-06	2890
bin	7.6184e-06	2991
bin	7.6896e-06	2842
bin	7.7608e-06	2859
bin	7.832e-06	2868
bin	7.9032e-06	2719
bin	7.9744e-06	2743
bin	8.0456e-06	2602
bin	8.1168e-06	2595
bin	8.188e-06	2481
bin	8.2592e-06	2592
bin	8.3304e-06	2453
bin	8.4016e-06	2441
bin	8.4728e-06	2431
bin	8.544e-06	2355
bin	8.6152e-06	2337
bin	8.6864e-06	2258
bin	8.7576e-06	2338
bin	8.8288e-06	2216
bin	8.9e-06	2229
bin	8.9712e-06	2231
bin	9.0424e-06	2195
bin	9.1136e-06	2277
bin	9.1848e-06	2201
bin	9.256e-06	2182
bin	9.3272e-06	2173
bin	9.3984e-06	2063
bin	9.4696e-06	2102
bin	9.5408e-06	2052
bin	9.612e-06	1959
bin	9.6832e-06	2043
bin	9.7544e-06	2108
bin	9.8256e-06	2024
bin	9.8968e-06	2030
bin	9.968e-06	1984
bin	1.00392e-05	1972
bin	1.01104e-05	1974
bin	1.01816e-05	1942
bin	1.02528e-05	2003
bin	1.0324e-05	1984
bin	1.03952e-05	2044
bin	1.04664e-05	1982
bin	1.05376e-05	1969
bin	1.06088e-05	1970
bin	1.068e-05	1981
bin	1.07512e-05	1908
bin	1.08224e-05	1873
bin	1.08936e-05	1831
bin	1.09648e-05	1919
bin	1.1036e-05	1913
bin	1.11072e-05	1853
bin	1.11784e-05	1785
bin	1.12496e-05	1794
bin	1.13208e-05	1798
bin	1.1392e-05	1816
bin	1.14632e-05	1824
bin	1.15344e-05	1851
bin	1.16056e-05	1822
bin	1.16768e-05	1900
bin	1.1748e-05	1824
bin	1.18192e-05	1887
bin	1.18904e-05	1779
bin	1.19616e-05	1811
bin	1.20328e-05	1702
bin	1.2104e-05	1748
bin	1.21752e-05	1669
bin	1.22464e-05	1655
bin	1.23176e-05	1727
bin	1.23888e-05	1786
bin	1.246e-05	1696
bin	1.25312e-05	1736
bin	1.26024e-05	1664
bin	1.26736e-05	1675
bin	1.27448e-05	1641
bin	1.2816e-05	1672
bin	1.28872e-05	1624
bin	1.29584e-05	1608
bin	1.30296e-05	1633
bin	1.31008e-05	1557
bin	1.3172e-05	1557
bin	1.32432e-05	1630
bin	1.33144e-05	1544
bin	1.33856e-05	1510
bin	1.34568e-05	1572
bin	1.3528e-05	1453
bin	1.35992e-05	1520
bin	1.36704e-05	1552
bin	1.37416e-05	1506
bin	1.38128e-05	1508
bin	1.3884e-05	1513
bin	1.39552e-05	1458
bin	1.40264e-05	1508
bin	1.40976e-05	1448
bin	1.41688e-05	1426
bin	1.424e-05	1477
bin	1.43112e-05	1512
bin	1.43824e-05	1502
bin	1.44536e-05	1527
bin	1.45248e-05	1494
bin	1.4596e-05	1452
bin	1.46672e-05	1470
bin	1.47384e-05	1452
bin	1.48096e-05	1410
bin	1.48808e-05	1481
bin	1.4952e-05	1442
bin	1.50232e-05	1503
bin	1.50944e-05	1506
bin	1.51656e-05	1523
bin	1.52368e-05	1469
bin	1.5308e-05	1439
bin	1.53792e-05	1452
bin	1.54504e-05	1411
bin	1.55216e-05	1431
bin	1.55928e-05	1440
bin	1.5664e-05	1399
bin	1.57352e-05	1448
bin	1.58064e-05	1409
bin	1.58776e-05	1428
bin	1.59488e-05	1433
bin	1.602e-05	1438
bin	1.60912e-05	1374
bin	1.61624e-05	1426
bin	1.62336e-05	1337
bin	1.63048e-05	1403
bin	1.6376e-05	1352
bin	1.64472e-05	1346
bin	1.65184e-05	1360
bin	1.65896e-05	1351
bin	1.66608e-05	1315
bin	1.6732e-05	1299
bin	1.68032e-05	1352
bin	1.68744e-05	1319
bin	1.69456e-05	1318
bin	1.70168e-05	1309
bin	1.7088e-05	1294
bin	1.71592e-05	1228
bin	1.72304e-05	1266
bin	1.73016e-05	1281
bin	1.73728e-05	1270
bin	1.7444e-05	1309
bin	1.75152e-05	1297
bin	1.75864e-05	1286
bin	1.76576e-05	1269
bin	1.77288e-05	1316
bin	1.78e-05	1229
bin	1.78712e-05	1231
bin	1.79424e-05	1222
bin	1.80136e-05	1272
bin	1.80848e-05	1263
bin	1.8156e-05	1251
bin	1.82272e-05	1288
bin	1.82984e-05	1264
bin	1.83696e-05	1255
bin	1.84408e-05	1287
bin	1.8512e-05	1265
bin	1.85832e-05	1189
bin	1.86544e-05	1258
bin	1.87256e-05	1201
bin	1.87968e-05	1198
bin	1.8868e-05	1214
bin	1.89392e-05	1247
bin	1.90104e-05	1256
bin	1.90816e-05	1218
bin	1.91528e-05	1206
bin	1.9224e-05	1195
bin	1.92952e-05	1202
bin	1.93664e-05	1206
bin	1.94376e-05	1179
bin	1.95088e-05	1198
bin	1.958e-05	1225
bin	1.96512e-05	1224
bin	1.97224e-05	1245
bin	1.97936e-05	1176
bin	1.98648e-05	1175
bin	1.9936e-05	1158
bin	2.00072e-05	1142
bin	2.00784e-05	1144
bin	2.01496e-05	1185
bin	2.02208e-05	1141
bin	2.0292e-05	1130
bin	2.03632e-05	1110
bin	2.04344e-05	1130
bin	2.05056e-05	1109
bin	2.05768e-05	1057
bin	2.0648e-05	1083
bin	2.07192e-05	1053
bin	2.07904e-05	1036
bin	2.08616e-05	1027
bin	2.09328e-05	1092
bin	2.1004e-05	1133
bin	2.10752e-05	1026
bin	2.11464e-05	1046
bin	2.12176e-05	1033
bin	2.12888e-05	1058
bin	2.136e-05	1049
bin	2.14312e-05	1030
bin	2.15024e-05	1107
bin	2.15736e-05	1079
bin	2.16448e-05	1073
bin	2.1716e-05	1142
bin	2.17872e-05	1128
bin	2.18584e-05	1123
bin	2.19296e-05	1128
bin	2.20008e-05	1082
bin	2.2072e-05	1060
bin	2.21432e-05	998
bin	2.22144e-05	997
bin	2.22856e-05	979
bin	2.23568e-05	1047
bin	2.2428e-05	1036
bin	2.24992e-05	1022
bin	2.25704e-05	1017
bin	2.26416e-05	1025
bin	2.27128e-05	1011
bin	2.2784e-05	1009
bin	2.28552e-05	1018
bin	2.29264e-05	989
bin	2.29976e-05	1028
bin	2.30688e-05	1064
bin	2.314e-05	977
bin	2.32112e-05	948
bin	2.32824e-05	1017
bin	2.33536e-05	1053
bin	2.34248e-05	1036
bin	2.3496e-05	1044
bin	2.35672e-05	1067
bin	2.36384e-05	1079
bin	2.37096e-05	1051
bin	2.37808e-05	1015
bin	2.3852e-05	1036
bin	2.39232e-05	1024
bin	2.39944e-05	1017
bin	2.40656e-05	1073
bin	2.41368e-05	1056
bin	2.4208e-05	1084
bin	2.42792e-05	1068
bin	2.43504e-05	1065
bin	2.44216e-05	1044
bin	2.44928e-05	1054
bin	2.4564e-05	1062
bin	2.46352e-05	1057
bin	2.47064e-05	1041
bin	2.47776e-05	1049
bin	2.48488e-05	1021
bin	2.492e-05	1050
bin	2.49912e-05	990
bin	2.50624e-05	1013
bin	2.51336e-05	1037
bin	2.52048e-05	1036
bin	2.5276e-05	982
bin	2.53472e-05	1018
bin	2.54184e-05	1029
bin	2.54896e-05	972
bin	2.55608e-05	976
bin	2.5632e-05	1015
bin	2.57032e-05	1009
bin	2.57744e-05	942
bin	2.58456e-05	990
bin	2.59168e-05	1036
bin	2.5988e-05	1010
bin	2.60592e-05	1010
bin	2.61304e-05	965
bin	2.62016e-05	966
bin	2.62728e-05	957
bin	2.6344e-05	936
bin	2.64152e-05	943
bin	2.64864e-05	925
bin	2.65576e-05	947
bin	2.66288e-05	959
bin	2.67e-05	935
bin	2.67712e-05	985
bin	2.68424e-05	932
bin	2.69136e-05	955
bin	2.69848e-05	969
bin	2.7056e-05	902
bin	2.71272e-05	923
bin	2.71984e-05	888
bin	2.72696e-05	944
bin	2.73408e-05	908
bin	2.7412e-05	892
bin	2.74832e-05	902
bin	2.75544e-05	936
bin	2.76256e-05	887
bin	2.76968e-05	937
bin	2.7768e-05	869
bin	2.78392e-05	885
bin	2.79104e-05	908
bin	2.79816e-05	932
bin	2.80528e-05	927
bin	2.8124e-05	947
bin	2.81952e-05	950
bin	2.82664e-05	899
bin	2.83376e-05	926
bin	2.84088e-05	927
bin	2.848e-05	940
bin	2.85512e-05	882
bin	2.86224e-05	889
bin	2.86936e-05	926
bin	2.87648e-05	975
bin	2.8836e-05	955
bin	2.89072e-05	893
bin	2.89784e-05	942
bin	2.90496e-05	888
bin	2.91208e-05	928
bin	2.9192e-05	914
bin	2.92632e-05	903
bin	2.93344e-05	921
bin	2.94056e-05	932
bin	2.94768e-05	948
bin	2.9548e-05	935
bin	2.96192e-05	889
bin	2.96904e-05	908
bin	2.97616e-05	913
bin	2.98328e-05	909
bin	2.9904e-05	911
bin	2.99752e-05	915
bin	3.00464e-05	920
bin	3.01176e-05	986
bin	3.01888e-05	963
bin	3.026e-05	984
bin	3.03312e-05	981
bin	3.04024e-05	997
bin	3.04736e-05	963
bin	3.05448e-05	958
bin	3.0616e-05	1050
bin	3.06872e-05	1043
bin	3.07584e-05	1066
bin	3.08296e-05	976
bin	3.09008e-05	1007
bin	3.0972e-05	1011
bin	3.10432e-05	1010
bin	3.11144e-05	957
bin	3.11856e-05	988
bin	3.12568e-05	954
bin	3.1328e-05	975
bin	3.13992e-05	1005
bin	3.14704e-05	958
bin	3.15416e-05	977
bin	3.16128e-05	1002
bin	3.1684e-05	972
bin	3.17552e-05	986
bin	3.18264e-05	939
bin	3.18976e-05	919
bin	3.19688e-05	970
bin	3.204e-05	920
bin	3.21112e-05	950
bin	3.21824e-05	956
bin	3.22536e-05	970
bin	3.23248e-05	936
bin	3.2396e-05	864
bin	3.24672e-05	849
bin	3.25384e-05	857
bin	3.26096e-05	874
bin	3.26808e-05	897
bin	3.2752e-05	873
bin	3.28232e-05	872
bin	3.28944e-05	914
bin	3.29656e-05	919
bin	3.30368e-05	963
bin	3.3108e-05	912
bin	3.31792e-05	977
bin	3.32504e-05	1004
bin	3.33216e-05	1006
bin	3.33928e-05	1005
bin	3.3464e-05	989
bin	3.35352e-05	983
bin	3.36064e-05	984
bin	3.36776e-05	913
bin	3.37488e-05	989
bin	3.382e-05	1001
bin	3.38912e-05	949
bin	3.39624e-05	986
bin	3.40336e-05	956
bin	3.41048e-05	922
bin	3.4176e-05	905
bin	3.42472e-05	954
bin	3.43184e-05	902
bin	3.43896e-05	934
bin	3.44608e-05	931
bin	3.4532e-05	944
bin	3.46032e-05	973
bin	3.46744e-05	907
bin	3.47456e-05	938
bin	3.48168e-05	901
bin	3.4888e-05	902
bin	3.49592e-05	895
bin	3.50304e-05	901
bin	3.51016e-05	897
bin	3.51728e-05	909
bin	3.5244e-05	899
bin	3.53152e-05	911
bin	3.53864e-05	915
bin	3.54576e-05	927
bin	3.55288e-05	945
bin	3.56e-05	4533141
statistic Torus3d_bub.timer 	"Life Times"
field count 6291456
field mean 0.0015346120312921
field stddev 0.0011595943105523
field sum 9654.9440719446
field sqrsum 23.276454703313
field min 3.77331845e-07
field max 0.00431234866657
bin	-INF	0
bin	0	6144
bin	8.544e-07	8192
bin	1.7088e-06	8537
bin	2.5632e-06	9312
bin	3.4176e-06	10141
bin	4.272e-06	11150
bin	5.1264e-06	12326
bin	5.9808e-06	13568
bin	6.8352e-06	14930
bin	7.6896e-06	16213
bin	8.544e-06	17377
bin	9.3984e-06	19043
bin	1.02528e-05	14443
bin	1.11072e-05	13421
bin	1.19616e-05	14344
bin	1.2816e-05	15450
bin	1.36704e-05	16288
bin	1.45248e-05	17125
bin	1.53792e-05	17973
bin	1.62336e-05	18797
bin	1.7088e-05	19378
bin	1.79424e-05	19876
bin	1.87968e-05	20503
bin	1.96512e-05	21235
bin	2.05056e-05	22196
bin	2.136e-05	22776
bin	2.22144e-05	23333
bin	2.30688e-05	24152
bin	2.39232e-05	25069
bin	2.47776e-05	25859
bin	2.5632e-05	26950
bin	2.64864e-05	28036
bin	2.73408e-05	28348
bin	2.81952e-05	28964
bin	2.90496e-05	29004
bin	2.9904e-05	29116
bin	3.07584e-05	29013
bin	3.16128e-05	28002
bin	3.24672e-05	26627
bin	3.33216e-05	25245
bin	3.4176e-05	23819
bin	3.50304e-05	22334
bin	3.58848e-05	20961
bin	3.67392e-05	19584
bin	3.75936e-05	17983
bin	3.8448e-05	16458
bin	3.93024e-05	15000
bin	4.01568e-05	13508
bin	4.10112e-05	12562
bin	4.18656e-05	11310
bin	4.272e-05	10309
bin	4.35744e-05	9758
bin	4.44288e-05	9118
bin	4.52832e-05	8596
bin	4.61376e-05	8046
bin	4.6992e-05	7751
bin	4.78464e-05	7222
bin	4.87008e-05	6975
bin	4.95552e-05	6721
bin	5.04096e-05	6506
bin	5.1264e-05	6327
bin	5.21184e-05	6262
bin	5.29728e-05	6075
bin	5.38272e-05	6100
bin	5.46816e-05	6066
bin	5.5536e-05	5999
bin	5.63904e-05	6007
bin	5.72448e-05	6040
bin	5.80992e-05	5923
bin	5.89536e-05	5849
bin	5.9808e-05	5894
bin	6.06624e-05	6035
bin	6.15168e-05	6035
bin	6.23712e-05	6151
bin	6.32256e-05	5944
bin	6.408e-05	5859
bin	6.49344e-05	5742
bin	6.57888e-05	5531
bin	6.66432e-05	5433
bin	6.74976e-05	5175
bin	6.8352e-05	4987
bin	6.92064e-05	4819
bin	7.00608e-05	4576
bin	7.09152e-05	4352
bin	7.17696e-05	4100
bin	7.2624e-05	3920
bin	7.34784e-05	3652
bin	7.43328e-05	3655
bin	7.51872e-05	3512
bin	7.60416e-05	3409
bin	7.6896e-05	3424
bin	7.77504e-05	3220
bin	7.86048e-05	3146
bin	7.94592e-05	3153
bin	8.03136e-05	2934
bin	8.1168e-05	3120
bin	8.20224e-05	3098
bin	8.28768e-05	3065
bin	8.37312e-05	3049
bin	8.45856e-05	2990
bin	8.544e-05	2939
bin	8.62944e-05	2979
bin	8.71488e-05	2975
bin	8.80032e-05	2942
bin	8.88576e-05	3018
bin	8.9712e-05	2940
bin	9.05664e-05	2957
bin	9.14208e-05	3046
bin	9.22752e-05	3095
bin	9.31296e-05	3124
bin	9.3984e-05	3177
bin	9.48384e-05	3128
bin	9.56928e-05	3038
bin	9.65472e-05	3019
bin	9.74016e-05	3085
bin	9.8256e-05	2888
bin	9.91104e-05	2846
bin	9.99648e-05	2734
bin	0.0001008192	2668
bin	0.0001016736	2478
bin	0.000102528	2463
bin	0.0001033824	2417
bin	0.0001042368	2314
bin	0.0001050912	2267
bin	0.0001059456	2159
bin	0.0001068	2095
bin	0.0001076544	2005
bin	0.0001085088	2070
bin	0.0001093632	1962
bin	0.0001102176	1912
bin	0.000111072	1991
bin	0.0001119264	1993
bin	0.0001127808	1890
bin	0.0001136352	2016
bin	0.0001144896	1996
bin	0.000115344	1973
bin	0.0001161984	1989
bin	0.0001170528	2040
bin	0.0001179072	2091
bin	0.0001187616	2018
bin	0.000119616	2051
bin	0.0001204704	2062
bin	0.0001213248	2050
bin	0.0001221792	2097
bin	0.0001230336	2143
bin	0.000123888	2132
bin	0.0001247424	2096
bin	0.0001255968	2150
bin	0.0001264512	2079
bin	0.0001273056	2107
bin	0.00012816	2095
bin	0.0001290144	1929
bin	0.0001298688	2001
bin	0.0001307232	1989
bin	0.0001315776	1887
bin	0.000132432	1934
bin	0.0001332864	1878
bin	0.0001341408	1821
bin	0.0001349952	1747
bin	0.0001358496	1723
bin	0.000136704	1738
bin	0.0001375584	1746
bin	0.0001384128	1643
bin	0.0001392672	1650
bin	0.0001401216	1656
bin	0.000140976	1630
bin	0.0001418304	1565
bin	0.0001426848	1557
bin	0.0001435392	1664
bin	0.0001443936	1529
bin	0.000145248	1574
bin	0.0001461024	1603
bin	0.0001469568	1549
bin	0.0001478112	1587
bin	0.0001486656	1614
bin	0.00014952	1618
bin	0.0001503744	1680
bin	0.0001512288	1642
bin	0.0001520832	1663
bin	0.0001529376	1655
bin	0.000153792	1702
bin	0.0001546464	1667
bin	0.0001555008	1755
bin	0.0001563552	1687
bin	0.0001572096	1721
bin	0.000158064	1732
bin	0.0001589184	1808
bin	0.0001597728	1748
bin	0.0001606272	1708
bin	0.0001614816	1671
bin	0.000162336	1541
bin	0.0001631904	1559
bin	0.0001640448	1547
bin	0.0001648992	1550
bin	0.0001657536	1484
bin	0.000166608	1371
bin	0.0001674624	1432
bin	0.0001683168	1348
bin	0.0001691712	1320
bin	0.0001700256	1313
bin	0.00017088	1264
bin	0.0001717344	1338
bin	0.0001725888	1254
bin	0.0001734432	1255
bin	0.0001742976	1289
bin	0.000175152	1290
bin	0.0001760064	1310
bin	0.0001768608	1318
bin	0.0001777152	1338
bin	0.0001785696	1301
bin	0.000179424	1404
bin	0.0001802784	1397
bin	0.0001811328	1344
bin	0.0001819872	1443
bin	0.0001828416	1438
bin	0.000183696	1412
bin	0.0001845504	1463
bin	0.0001854048	1456
bin	0.0001862592	1529
bin	0.0001871136	1486
bin	0.000187968	1408
bin	0.0001888224	1452
bin	0.0001896768	1446
bin	0.0001905312	1452
bin	0.0001913856	1467
bin	0.00019224	1426
bin	0.0001930944	1400
bin	0.0001939488	1398
bin	0.0001948032	1348
bin	0.0001956576	1348
bin	0.000196512	1282
bin	0.0001973664	1301
bin	0.0001982208	1330
bin	0.0001990752	1245
bin	0.0001999296	1226
bin	0.000200784	1194
bin	0.0002016384	1187
bin	0.0002024928	1161
bin	0.0002033472	1110
bin	0.0002042016	1157
bin	0.000205056	1142
bin	0.0002059104	1137
bin	0.0002067648	1121
bin	0.0002076192	1119
bin	0.0002084736	1166
bin	0.000209328	1204
bin	0.0002101824	1196
bin	0.0002110368	1200
bin	0.0002118912	1189
bin	0.0002127456	1215
bin	0.0002136	1257
bin	0.0002144544	1271
bin	0.0002153088	1366
bin	0.0002161632	1371
bin	0.0002170176	1292
bin	0.000217872	1301
bin	0.0002187264	1324
bin	0.0002195808	1294
bin	0.0002204352	1312
bin	0.0002212896	1284
bin	0.000222144	1298
bin	0.0002229984	1193
bin	0.0002238528	1229
bin	0.0002247072	1157
bin	0.0002255616	1126
bin	0.000226416	1105
bin	0.0002272704	1038
bin	0.0002281248	1094
bin	0.0002289792	1005
bin	0.0002298336	1029
bin	0.000230688	1009
bin	0.0002315424	959
bin	0.0002323968	1001
bin	0.0002332512	946
bin	0.0002341056	922
bin	0.00023496	949
bin	0.0002358144	922
bin	0.0002366688	976
bin	0.0002375232	987
bin	0.0002383776	1000
bin	0.000239232	1004
bin	0.0002400864	1025
bin	0.0002409408	998
bin	0.0002417952	1061
bin	0.0002426496	1096
bin	0.000243504	1061
bin	0.0002443584	1021
bin	0.0002452128	1103
bin	0.0002460672	1114
bin	0.0002469216	1137
bin	0.000247776	1181
bin	0.0002486304	1215
bin	0.0002494848	1177
bin	0.0002503392	1136
bin	0.0002511936	1139
bin	0.000252048	1140
bin	0.0002529024	1140
bin	0.0002537568	1084
bin	0.0002546112	1091
bin	0.0002554656	1074
bin	0.00025632	1112
bin	0.0002571744	1102
bin	0.0002580288	1062
bin	0.0002588832	1093
bin	0.0002597376	1041
bin	0.000260592	1075
bin	0.0002614464	1047
bin	0.0002623008	973
bin	0.0002631552	971
bin	0.0002640096	965
bin	0.000264864	1019
bin	0.0002657184	1010
bin	0.0002665728	954
bin	0.0002674272	979
bin	0.0002682816	954
bin	0.000269136	959
bin	0.0002699904	966
bin	0.0002708448	968
bin	0.0002716992	973
bin	0.0002725536	987
bin	0.000273408	1014
bin	0.0002742624	1038
bin	0.0002751168	1021
bin	0.0002759712	1038
bin	0.0002768256	1081
bin	0.00027768	1019
bin	0.0002785344	1097
bin	0.0002793888	1112
bin	0.0002802432	1143
bin	0.0002810976	1125
bin	0.000281952	1120
bin	0.0002828064	1135
bin	0.0002836608	1121
bin	0.0002845152	1023
bin	0.0002853696	1021
bin	0.000286224	1027
bin	0.0002870784	977
bin	0.0002879328	931
bin	0.0002887872	973
bin	0.0002896416	964
bin	0.000290496	940
bin	0.0002913504	895
bin	0.0002922048	939
bin	0.0002930592	915
bin	0.0002939136	892
bin	0.000294768	876
bin	0.0002956224	870
bin	0.0002964768	917
bin	0.0002973312	870
bin	0.0002981856	830
bin	0.00029904	893
bin	0.0002998944	925
bin	0.0003007488	910
bin	0.0003016032	903
bin	0.0003024576	889
bin	0.000303312	883
bin	0.0003041664	928
bin	0.0003050208	939
bin	0.0003058752	938
bin	0.0003067296	1022
bin	0.000307584	977
bin	0.0003084384	964
bin	0.0003092928	1021
bin	0.0003101472	994
bin	0.0003110016	998
bin	0.000311856	983
bin	0.0003127104	1021
bin	0.0003135648	1022
bin	0.0003144192	1021
bin	0.0003152736	993
bin	0.000316128	963
bin	0.0003169824	913
bin	0.0003178368	932
bin	0.0003186912	899
bin	0.0003195456	882
bin	0.0003204	834
bin	0.0003212544	814
bin	0.0003221088	813
bin	0.0003229632	773
bin	0.0003238176	748
bin	0.000324672	727
bin	0.0003255264	737
bin	0.0003263808	769
bin	0.0003272352	748
bin	0.0003280896	784
bin	0.000328944	824
bin	0.0003297984	796
bin	0.0003306528	789
bin	0.0003315072	833
bin	0.0003323616	934
bin	0.000333216	905
bin	0.0003340704	915
bin	0.0003349248	882
bin	0.0003357792	885
bin	0.0003366336	904
bin	0.000337488	913
bin	0.0003383424	885
bin	0.0003391968	939
bin	0.0003400512	869
bin	0.0003409056	906
bin	0.00034176	903
bin	0.0003426144	956
bin	0.0003434688	837
bin	0.0003443232	893
bin	0.0003451776	836
bin	0.000346032	855
bin	0.0003468864	848
bin	0.0003477408	813
bin	0.0003485952	799
bin	0.0003494496	760
bin	0.000350304	777
bin	0.0003511584	736
bin	0.0003520128	735
bin	0.0003528672	745
bin	0.0003537216	708
bin	0.000354576	759
bin	0.0003554304	754
bin	0.0003562848	717
bin	0.0003571392	700
bin	0.0003579936	724
bin	0.000358848	700
bin	0.0003597024	741
bin	0.0003605568	759
bin	0.0003614112	718
bin	0.0003622656	745
bin	0.00036312	748
bin	0.0003639744	723
bin	0.0003648288	758
bin	0.0003656832	773
bin	0.0003665376	766
bin	0.000367392	710
bin	0.0003682464	741
bin	0.0003691008	818
bin	0.0003699552	775
bin	0.0003708096	763
bin	0.000371664	822
bin	0.0003725184	782
bin	0.0003733728	876
bin	0.0003742272	851
bin	0.0003750816	830
bin	0.000375936	767
bin	0.0003767904	883
bin	0.0003776448	750
bin	0.0003784992	778
bin	0.0003793536	736
bin	0.000380208	723
bin	0.0003810624	711
bin	0.0003819168	692
bin	0.0003827712	677
bin	0.0003836256	704
bin	0.00038448	648
bin	0.0003853344	661
bin	0.0003861888	636
bin	0.0003870432	660
bin	0.0003878976	694
bin	0.000388752	722
bin	0.0003896064	684
bin	0.0003904608	713
bin	0.0003913152	709
bin	0.0003921696	733
bin	0.000393024	754
bin	0.0003938784	745
bin	0.0003947328	754
bin	0.0003955872	775
bin	0.0003964416	796
bin	0.000397296	826
bin	0.0003981504	822
bin	0.0003990048	816
bin	0.0003998592	875
bin	0.0004007136	815
bin	0.000401568	851
bin	0.0004024224	816
bin	0.0004032768	754
bin	0.0004041312	746
bin	0.0004049856	751
bin	0.00040584	751
bin	0.0004066944	737
bin	0.0004075488	712
bin	0.0004084032	705
bin	0.0004092576	713
bin	0.000410112	764
bin	0.0004109664	758
bin	0.0004118208	745
bin	0.0004126752	735
bin	0.0004135296	708
bin	0.000414384	723
bin	0.0004152384	701
bin	0.0004160928	660
bin	0.0004169472	677
bin	0.0004178016	711
bin	0.000418656	733
bin	0.0004195104	705
bin	0.0004203648	717
bin	0.0004212192	718
bin	0.0004220736	753
bin	0.000422928	699
bin	0.0004237824	725
bin	0.0004246368	729
bin	0.0004254912	751
bin	0.0004263456	704
bin	0.0004272	4571208
