version 2
run Transposition-78-20120710-19:22:51-28042
attr alg 2
attr buf 8
attr configname Transposition
attr datetime 20120710-19:22:51
attr delta 1
attr experiment Transposition
attr ext false
attr inifile altro.ini
attr iterationvars "$buf=8, $ext=false, $ofedge=2, $delta=1, $alg=2"
attr iterationvars2 "$buf=8, $ext=false, $ofedge=2, $delta=1, $alg=2, $repetition=0"
attr measurement "$buf=8, $ext=false, $ofedge=2, $delta=1, $alg=2"
attr network Torus3d_bub
attr ofedge 2
attr processid 28042
attr repetition 0
attr replication #0
attr resultdir altro-results
attr runnumber 78
attr seedset 78

scalar . 	alg 	2
scalar . 	buf 	8
scalar . 	delta 	1
scalar . 	ofedge 	2
scalar Torus3d_bub.timer 	#endTime 	0.004649633666666
scalar Torus3d_bub.timer 	#totalHops 	89897340
scalar Torus3d_bub.timer 	#totalPacks 	6291456
scalar Torus3d_bub.timer 	#totalDerouted 	1950468
scalar Torus3d_bub.timer 	#totalOutFlanked 	0
scalar Torus3d_bub.timer 	#totalCQRed 	1950468
scalar Torus3d_bub.timer 	#LB 	0.000786432
scalar Torus3d_bub.timer 	#ratio 	0.16913848625066
statistic Torus3d_bub.timer 	"Hop Times"
field count 6193152
field mean 0.00013726505327815
field stddev 9.4717163748384e-05
field sum 850.10333923969
field sqrsum 0.17225035031035
field min 3.74222222e-07
field max 0.0009200496
bin	-INF	0
bin	0	0
bin	7.12e-08	0
bin	1.424e-07	0
bin	2.136e-07	0
bin	2.848e-07	0
bin	3.56e-07	265
bin	4.272e-07	938
bin	4.984e-07	1504
bin	5.696e-07	2261
bin	6.408e-07	3335
bin	7.12e-07	4350
bin	7.832e-07	5159
bin	8.544e-07	6049
bin	9.256e-07	6853
bin	9.968e-07	7736
bin	1.068e-06	8299
bin	1.1392e-06	9217
bin	1.2104e-06	9929
bin	1.2816e-06	10740
bin	1.3528e-06	11916
bin	1.424e-06	13020
bin	1.4952e-06	13932
bin	1.5664e-06	15057
bin	1.6376e-06	15517
bin	1.7088e-06	15955
bin	1.78e-06	16126
bin	1.8512e-06	16371
bin	1.9224e-06	16561
bin	1.9936e-06	16222
bin	2.0648e-06	16147
bin	2.136e-06	15667
bin	2.2072e-06	15354
bin	2.2784e-06	14962
bin	2.3496e-06	14170
bin	2.4208e-06	13899
bin	2.492e-06	13330
bin	2.5632e-06	13041
bin	2.6344e-06	12423
bin	2.7056e-06	12039
bin	2.7768e-06	11591
bin	2.848e-06	10979
bin	2.9192e-06	10593
bin	2.9904e-06	10213
bin	3.0616e-06	9923
bin	3.1328e-06	9455
bin	3.204e-06	9048
bin	3.2752e-06	8901
bin	3.3464e-06	8354
bin	3.4176e-06	7830
bin	3.4888e-06	7590
bin	3.56e-06	7200
bin	3.6312e-06	6840
bin	3.7024e-06	6708
bin	3.7736e-06	6312
bin	3.8448e-06	6214
bin	3.916e-06	6022
bin	3.9872e-06	5747
bin	4.0584e-06	5623
bin	4.1296e-06	5437
bin	4.2008e-06	5192
bin	4.272e-06	5118
bin	4.3432e-06	4948
bin	4.4144e-06	4718
bin	4.4856e-06	4690
bin	4.5568e-06	4738
bin	4.628e-06	4435
bin	4.6992e-06	4257
bin	4.7704e-06	4217
bin	4.8416e-06	4148
bin	4.9128e-06	4122
bin	4.984e-06	4018
bin	5.0552e-06	3934
bin	5.1264e-06	3806
bin	5.1976e-06	3709
bin	5.2688e-06	3649
bin	5.34e-06	3539
bin	5.4112e-06	3581
bin	5.4824e-06	3526
bin	5.5536e-06	3441
bin	5.6248e-06	3472
bin	5.696e-06	3437
bin	5.7672e-06	3264
bin	5.8384e-06	3314
bin	5.9096e-06	3189
bin	5.9808e-06	3188
bin	6.052e-06	3061
bin	6.1232e-06	3083
bin	6.1944e-06	3014
bin	6.2656e-06	2979
bin	6.3368e-06	2968
bin	6.408e-06	2913
bin	6.4792e-06	2967
bin	6.5504e-06	2839
bin	6.6216e-06	2884
bin	6.6928e-06	2893
bin	6.764e-06	2791
bin	6.8352e-06	2605
bin	6.9064e-06	2633
bin	6.9776e-06	2651
bin	7.0488e-06	2616
bin	7.12e-06	2639
bin	7.1912e-06	2680
bin	7.2624e-06	2679
bin	7.3336e-06	2657
bin	7.4048e-06	2633
bin	7.476e-06	2595
bin	7.5472e-06	2536
bin	7.6184e-06	2490
bin	7.6896e-06	2526
bin	7.7608e-06	2442
bin	7.832e-06	2389
bin	7.9032e-06	2462
bin	7.9744e-06	2497
bin	8.0456e-06	2414
bin	8.1168e-06	2374
bin	8.188e-06	2375
bin	8.2592e-06	2387
bin	8.3304e-06	2285
bin	8.4016e-06	2260
bin	8.4728e-06	2166
bin	8.544e-06	2132
bin	8.6152e-06	2059
bin	8.6864e-06	2067
bin	8.7576e-06	2022
bin	8.8288e-06	1945
bin	8.9e-06	1969
bin	8.9712e-06	1956
bin	9.0424e-06	1916
bin	9.1136e-06	1922
bin	9.1848e-06	1949
bin	9.256e-06	1909
bin	9.3272e-06	1923
bin	9.3984e-06	1823
bin	9.4696e-06	1848
bin	9.5408e-06	1837
bin	9.612e-06	1776
bin	9.6832e-06	1781
bin	9.7544e-06	1705
bin	9.8256e-06	1802
bin	9.8968e-06	1761
bin	9.968e-06	1768
bin	1.00392e-05	1742
bin	1.01104e-05	1812
bin	1.01816e-05	1727
bin	1.02528e-05	1680
bin	1.0324e-05	1668
bin	1.03952e-05	1725
bin	1.04664e-05	1814
bin	1.05376e-05	1778
bin	1.06088e-05	1770
bin	1.068e-05	1753
bin	1.07512e-05	1727
bin	1.08224e-05	1656
bin	1.08936e-05	1615
bin	1.09648e-05	1616
bin	1.1036e-05	1676
bin	1.11072e-05	1633
bin	1.11784e-05	1591
bin	1.12496e-05	1581
bin	1.13208e-05	1571
bin	1.1392e-05	1575
bin	1.14632e-05	1547
bin	1.15344e-05	1526
bin	1.16056e-05	1564
bin	1.16768e-05	1535
bin	1.1748e-05	1624
bin	1.18192e-05	1550
bin	1.18904e-05	1414
bin	1.19616e-05	1407
bin	1.20328e-05	1341
bin	1.2104e-05	1341
bin	1.21752e-05	1330
bin	1.22464e-05	1284
bin	1.23176e-05	1260
bin	1.23888e-05	1325
bin	1.246e-05	1345
bin	1.25312e-05	1360
bin	1.26024e-05	1384
bin	1.26736e-05	1422
bin	1.27448e-05	1438
bin	1.2816e-05	1392
bin	1.28872e-05	1393
bin	1.29584e-05	1343
bin	1.30296e-05	1373
bin	1.31008e-05	1391
bin	1.3172e-05	1370
bin	1.32432e-05	1324
bin	1.33144e-05	1299
bin	1.33856e-05	1334
bin	1.34568e-05	1309
bin	1.3528e-05	1302
bin	1.35992e-05	1316
bin	1.36704e-05	1366
bin	1.37416e-05	1316
bin	1.38128e-05	1356
bin	1.3884e-05	1323
bin	1.39552e-05	1320
bin	1.40264e-05	1331
bin	1.40976e-05	1298
bin	1.41688e-05	1276
bin	1.424e-05	1251
bin	1.43112e-05	1291
bin	1.43824e-05	1281
bin	1.44536e-05	1316
bin	1.45248e-05	1334
bin	1.4596e-05	1266
bin	1.46672e-05	1311
bin	1.47384e-05	1290
bin	1.48096e-05	1248
bin	1.48808e-05	1187
bin	1.4952e-05	1165
bin	1.50232e-05	1212
bin	1.50944e-05	1265
bin	1.51656e-05	1207
bin	1.52368e-05	1239
bin	1.5308e-05	1214
bin	1.53792e-05	1234
bin	1.54504e-05	1175
bin	1.55216e-05	1201
bin	1.55928e-05	1165
bin	1.5664e-05	1213
bin	1.57352e-05	1187
bin	1.58064e-05	1136
bin	1.58776e-05	1161
bin	1.59488e-05	1183
bin	1.602e-05	1168
bin	1.60912e-05	1184
bin	1.61624e-05	1174
bin	1.62336e-05	1155
bin	1.63048e-05	1148
bin	1.6376e-05	1187
bin	1.64472e-05	1173
bin	1.65184e-05	1123
bin	1.65896e-05	1098
bin	1.66608e-05	1144
bin	1.6732e-05	1125
bin	1.68032e-05	1106
bin	1.68744e-05	1076
bin	1.69456e-05	1107
bin	1.70168e-05	1118
bin	1.7088e-05	1097
bin	1.71592e-05	1110
bin	1.72304e-05	1154
bin	1.73016e-05	1116
bin	1.73728e-05	1171
bin	1.7444e-05	1087
bin	1.75152e-05	1139
bin	1.75864e-05	1079
bin	1.76576e-05	1108
bin	1.77288e-05	1112
bin	1.78e-05	1158
bin	1.78712e-05	1149
bin	1.79424e-05	1059
bin	1.80136e-05	1185
bin	1.80848e-05	1145
bin	1.8156e-05	1085
bin	1.82272e-05	1085
bin	1.82984e-05	1109
bin	1.83696e-05	1074
bin	1.84408e-05	1043
bin	1.8512e-05	1089
bin	1.85832e-05	1088
bin	1.86544e-05	1111
bin	1.87256e-05	1133
bin	1.87968e-05	1110
bin	1.8868e-05	1098
bin	1.89392e-05	1131
bin	1.90104e-05	1062
bin	1.90816e-05	1108
bin	1.91528e-05	1098
bin	1.9224e-05	1117
bin	1.92952e-05	1106
bin	1.93664e-05	1122
bin	1.94376e-05	1117
bin	1.95088e-05	1117
bin	1.958e-05	1054
bin	1.96512e-05	1122
bin	1.97224e-05	1040
bin	1.97936e-05	1050
bin	1.98648e-05	1012
bin	1.9936e-05	1086
bin	2.00072e-05	1064
bin	2.00784e-05	1086
bin	2.01496e-05	1003
bin	2.02208e-05	1035
bin	2.0292e-05	1035
bin	2.03632e-05	1056
bin	2.04344e-05	1073
bin	2.05056e-05	1065
bin	2.05768e-05	1057
bin	2.0648e-05	1099
bin	2.07192e-05	1009
bin	2.07904e-05	1031
bin	2.08616e-05	968
bin	2.09328e-05	989
bin	2.1004e-05	999
bin	2.10752e-05	942
bin	2.11464e-05	970
bin	2.12176e-05	949
bin	2.12888e-05	927
bin	2.136e-05	956
bin	2.14312e-05	900
bin	2.15024e-05	930
bin	2.15736e-05	997
bin	2.16448e-05	990
bin	2.1716e-05	939
bin	2.17872e-05	984
bin	2.18584e-05	967
bin	2.19296e-05	984
bin	2.20008e-05	981
bin	2.2072e-05	959
bin	2.21432e-05	962
bin	2.22144e-05	965
bin	2.22856e-05	941
bin	2.23568e-05	923
bin	2.2428e-05	933
bin	2.24992e-05	966
bin	2.25704e-05	909
bin	2.26416e-05	965
bin	2.27128e-05	905
bin	2.2784e-05	927
bin	2.28552e-05	924
bin	2.29264e-05	928
bin	2.29976e-05	864
bin	2.30688e-05	931
bin	2.314e-05	988
bin	2.32112e-05	940
bin	2.32824e-05	908
bin	2.33536e-05	945
bin	2.34248e-05	874
bin	2.3496e-05	904
bin	2.35672e-05	893
bin	2.36384e-05	905
bin	2.37096e-05	874
bin	2.37808e-05	956
bin	2.3852e-05	925
bin	2.39232e-05	893
bin	2.39944e-05	896
bin	2.40656e-05	879
bin	2.41368e-05	882
bin	2.4208e-05	860
bin	2.42792e-05	930
bin	2.43504e-05	925
bin	2.44216e-05	903
bin	2.44928e-05	977
bin	2.4564e-05	919
bin	2.46352e-05	861
bin	2.47064e-05	873
bin	2.47776e-05	849
bin	2.48488e-05	884
bin	2.492e-05	949
bin	2.49912e-05	954
bin	2.50624e-05	942
bin	2.51336e-05	963
bin	2.52048e-05	910
bin	2.5276e-05	959
bin	2.53472e-05	885
bin	2.54184e-05	918
bin	2.54896e-05	897
bin	2.55608e-05	882
bin	2.5632e-05	852
bin	2.57032e-05	863
bin	2.57744e-05	879
bin	2.58456e-05	898
bin	2.59168e-05	906
bin	2.5988e-05	901
bin	2.60592e-05	897
bin	2.61304e-05	861
bin	2.62016e-05	904
bin	2.62728e-05	842
bin	2.6344e-05	866
bin	2.64152e-05	888
bin	2.64864e-05	936
bin	2.65576e-05	899
bin	2.66288e-05	911
bin	2.67e-05	917
bin	2.67712e-05	921
bin	2.68424e-05	934
bin	2.69136e-05	947
bin	2.69848e-05	924
bin	2.7056e-05	908
bin	2.71272e-05	934
bin	2.71984e-05	892
bin	2.72696e-05	864
bin	2.73408e-05	879
bin	2.7412e-05	860
bin	2.74832e-05	857
bin	2.75544e-05	858
bin	2.76256e-05	852
bin	2.76968e-05	890
bin	2.7768e-05	927
bin	2.78392e-05	930
bin	2.79104e-05	956
bin	2.79816e-05	902
bin	2.80528e-05	921
bin	2.8124e-05	918
bin	2.81952e-05	911
bin	2.82664e-05	925
bin	2.83376e-05	849
bin	2.84088e-05	868
bin	2.848e-05	887
bin	2.85512e-05	827
bin	2.86224e-05	884
bin	2.86936e-05	905
bin	2.87648e-05	870
bin	2.8836e-05	929
bin	2.89072e-05	877
bin	2.89784e-05	890
bin	2.90496e-05	892
bin	2.91208e-05	864
bin	2.9192e-05	884
bin	2.92632e-05	925
bin	2.93344e-05	899
bin	2.94056e-05	882
bin	2.94768e-05	833
bin	2.9548e-05	838
bin	2.96192e-05	915
bin	2.96904e-05	887
bin	2.97616e-05	865
bin	2.98328e-05	890
bin	2.9904e-05	861
bin	2.99752e-05	846
bin	3.00464e-05	864
bin	3.01176e-05	911
bin	3.01888e-05	899
bin	3.026e-05	846
bin	3.03312e-05	860
bin	3.04024e-05	874
bin	3.04736e-05	875
bin	3.05448e-05	903
bin	3.0616e-05	875
bin	3.06872e-05	878
bin	3.07584e-05	872
bin	3.08296e-05	901
bin	3.09008e-05	919
bin	3.0972e-05	876
bin	3.10432e-05	867
bin	3.11144e-05	847
bin	3.11856e-05	826
bin	3.12568e-05	856
bin	3.1328e-05	795
bin	3.13992e-05	830
bin	3.14704e-05	820
bin	3.15416e-05	851
bin	3.16128e-05	888
bin	3.1684e-05	852
bin	3.17552e-05	856
bin	3.18264e-05	851
bin	3.18976e-05	849
bin	3.19688e-05	887
bin	3.204e-05	823
bin	3.21112e-05	839
bin	3.21824e-05	797
bin	3.22536e-05	796
bin	3.23248e-05	773
bin	3.2396e-05	789
bin	3.24672e-05	839
bin	3.25384e-05	846
bin	3.26096e-05	818
bin	3.26808e-05	852
bin	3.2752e-05	771
bin	3.28232e-05	754
bin	3.28944e-05	782
bin	3.29656e-05	795
bin	3.30368e-05	762
bin	3.3108e-05	777
bin	3.31792e-05	806
bin	3.32504e-05	773
bin	3.33216e-05	777
bin	3.33928e-05	853
bin	3.3464e-05	861
bin	3.35352e-05	893
bin	3.36064e-05	902
bin	3.36776e-05	853
bin	3.37488e-05	863
bin	3.382e-05	833
bin	3.38912e-05	888
bin	3.39624e-05	875
bin	3.40336e-05	898
bin	3.41048e-05	914
bin	3.4176e-05	917
bin	3.42472e-05	917
bin	3.43184e-05	943
bin	3.43896e-05	944
bin	3.44608e-05	942
bin	3.4532e-05	906
bin	3.46032e-05	978
bin	3.46744e-05	958
bin	3.47456e-05	946
bin	3.48168e-05	951
bin	3.4888e-05	1019
bin	3.49592e-05	949
bin	3.50304e-05	961
bin	3.51016e-05	988
bin	3.51728e-05	989
bin	3.5244e-05	955
bin	3.53152e-05	933
bin	3.53864e-05	1021
bin	3.54576e-05	954
bin	3.55288e-05	1013
bin	3.56e-05	5049532
statistic Torus3d_bub.timer 	"Life Times"
field count 6291456
field mean 0.0018820942668035
field stddev 0.0012496230253924
field sum 11841.113267447
field sqrsum 32.11056142786
field min 1.64e-07
field max 0.004623654666666
bin	-INF	0
bin	0	6592
bin	8.544e-07	8192
bin	1.7088e-06	8717
bin	2.5632e-06	8952
bin	3.4176e-06	9508
bin	4.272e-06	10181
bin	5.1264e-06	10960
bin	5.9808e-06	11822
bin	6.8352e-06	12802
bin	7.6896e-06	13618
bin	8.544e-06	14811
bin	9.3984e-06	15944
bin	1.02528e-05	10419
bin	1.11072e-05	9574
bin	1.19616e-05	10381
bin	1.2816e-05	11067
bin	1.36704e-05	11518
bin	1.45248e-05	12249
bin	1.53792e-05	12781
bin	1.62336e-05	13209
bin	1.7088e-05	13573
bin	1.79424e-05	13997
bin	1.87968e-05	14392
bin	1.96512e-05	14819
bin	2.05056e-05	15347
bin	2.136e-05	15596
bin	2.22144e-05	16001
bin	2.30688e-05	16448
bin	2.39232e-05	16826
bin	2.47776e-05	17169
bin	2.5632e-05	17383
bin	2.64864e-05	17349
bin	2.73408e-05	16858
bin	2.81952e-05	16296
bin	2.90496e-05	15475
bin	2.9904e-05	14755
bin	3.07584e-05	13667
bin	3.16128e-05	12878
bin	3.24672e-05	12048
bin	3.33216e-05	10832
bin	3.4176e-05	10003
bin	3.50304e-05	9190
bin	3.58848e-05	8373
bin	3.67392e-05	7711
bin	3.75936e-05	7086
bin	3.8448e-05	6734
bin	3.93024e-05	6425
bin	4.01568e-05	6278
bin	4.10112e-05	6076
bin	4.18656e-05	5925
bin	4.272e-05	5732
bin	4.35744e-05	5491
bin	4.44288e-05	5383
bin	4.52832e-05	5231
bin	4.61376e-05	5075
bin	4.6992e-05	5000
bin	4.78464e-05	4992
bin	4.87008e-05	4977
bin	4.95552e-05	4971
bin	5.04096e-05	4904
bin	5.1264e-05	4839
bin	5.21184e-05	4888
bin	5.29728e-05	4773
bin	5.38272e-05	4603
bin	5.46816e-05	4528
bin	5.5536e-05	4355
bin	5.63904e-05	4273
bin	5.72448e-05	4102
bin	5.80992e-05	3892
bin	5.89536e-05	3743
bin	5.9808e-05	3565
bin	6.06624e-05	3430
bin	6.15168e-05	3249
bin	6.23712e-05	3189
bin	6.32256e-05	3146
bin	6.408e-05	3158
bin	6.49344e-05	3099
bin	6.57888e-05	2970
bin	6.66432e-05	2981
bin	6.74976e-05	2919
bin	6.8352e-05	2912
bin	6.92064e-05	2960
bin	7.00608e-05	2909
bin	7.09152e-05	2964
bin	7.17696e-05	3026
bin	7.2624e-05	3025
bin	7.34784e-05	3020
bin	7.43328e-05	3079
bin	7.51872e-05	3054
bin	7.60416e-05	3090
bin	7.6896e-05	3062
bin	7.77504e-05	3000
bin	7.86048e-05	2919
bin	7.94592e-05	2919
bin	8.03136e-05	2783
bin	8.1168e-05	2769
bin	8.20224e-05	2681
bin	8.28768e-05	2574
bin	8.37312e-05	2565
bin	8.45856e-05	2481
bin	8.544e-05	2510
bin	8.62944e-05	2482
bin	8.71488e-05	2476
bin	8.80032e-05	2353
bin	8.88576e-05	2287
bin	8.9712e-05	2180
bin	9.05664e-05	2210
bin	9.14208e-05	2141
bin	9.22752e-05	2134
bin	9.31296e-05	2158
bin	9.3984e-05	2148
bin	9.48384e-05	2100
bin	9.56928e-05	2154
bin	9.65472e-05	2183
bin	9.74016e-05	2165
bin	9.8256e-05	2167
bin	9.91104e-05	2147
bin	9.99648e-05	2257
bin	0.0001008192	2131
bin	0.0001016736	2190
bin	0.000102528	2189
bin	0.0001033824	2114
bin	0.0001042368	2082
bin	0.0001050912	2072
bin	0.0001059456	2082
bin	0.0001068	1960
bin	0.0001076544	1897
bin	0.0001085088	1908
bin	0.0001093632	1829
bin	0.0001102176	1778
bin	0.000111072	1689
bin	0.0001119264	1731
bin	0.0001127808	1675
bin	0.0001136352	1724
bin	0.0001144896	1672
bin	0.000115344	1635
bin	0.0001161984	1717
bin	0.0001170528	1727
bin	0.0001179072	1640
bin	0.0001187616	1601
bin	0.000119616	1669
bin	0.0001204704	1665
bin	0.0001213248	1659
bin	0.0001221792	1679
bin	0.0001230336	1650
bin	0.000123888	1680
bin	0.0001247424	1712
bin	0.0001255968	1760
bin	0.0001264512	1739
bin	0.0001273056	1784
bin	0.00012816	1764
bin	0.0001290144	1757
bin	0.0001298688	1769
bin	0.0001307232	1750
bin	0.0001315776	1706
bin	0.000132432	1575
bin	0.0001332864	1662
bin	0.0001341408	1614
bin	0.0001349952	1587
bin	0.0001358496	1629
bin	0.000136704	1576
bin	0.0001375584	1525
bin	0.0001384128	1558
bin	0.0001392672	1498
bin	0.0001401216	1506
bin	0.000140976	1429
bin	0.0001418304	1501
bin	0.0001426848	1460
bin	0.0001435392	1456
bin	0.0001443936	1478
bin	0.000145248	1442
bin	0.0001461024	1502
bin	0.0001469568	1581
bin	0.0001478112	1479
bin	0.0001486656	1583
bin	0.00014952	1545
bin	0.0001503744	1564
bin	0.0001512288	1618
bin	0.0001520832	1626
bin	0.0001529376	1611
bin	0.000153792	1544
bin	0.0001546464	1465
bin	0.0001555008	1439
bin	0.0001563552	1327
bin	0.0001572096	1381
bin	0.000158064	1359
bin	0.0001589184	1382
bin	0.0001597728	1244
bin	0.0001606272	1278
bin	0.0001614816	1250
bin	0.000162336	1304
bin	0.0001631904	1251
bin	0.0001640448	1246
bin	0.0001648992	1257
bin	0.0001657536	1266
bin	0.000166608	1337
bin	0.0001674624	1298
bin	0.0001683168	1328
bin	0.0001691712	1353
bin	0.0001700256	1342
bin	0.00017088	1311
bin	0.0001717344	1375
bin	0.0001725888	1352
bin	0.0001734432	1380
bin	0.0001742976	1436
bin	0.000175152	1406
bin	0.0001760064	1421
bin	0.0001768608	1359
bin	0.0001777152	1387
bin	0.0001785696	1327
bin	0.000179424	1326
bin	0.0001802784	1323
bin	0.0001811328	1328
bin	0.0001819872	1279
bin	0.0001828416	1219
bin	0.000183696	1200
bin	0.0001845504	1240
bin	0.0001854048	1253
bin	0.0001862592	1225
bin	0.0001871136	1215
bin	0.000187968	1312
bin	0.0001888224	1282
bin	0.0001896768	1205
bin	0.0001905312	1174
bin	0.0001913856	1210
bin	0.00019224	1187
bin	0.0001930944	1178
bin	0.0001939488	1196
bin	0.0001948032	1214
bin	0.0001956576	1202
bin	0.000196512	1227
bin	0.0001973664	1248
bin	0.0001982208	1190
bin	0.0001990752	1238
bin	0.0001999296	1178
bin	0.000200784	1210
bin	0.0002016384	1170
bin	0.0002024928	1105
bin	0.0002033472	1147
bin	0.0002042016	1155
bin	0.000205056	1192
bin	0.0002059104	1138
bin	0.0002067648	1053
bin	0.0002076192	1061
bin	0.0002084736	1020
bin	0.000209328	1048
bin	0.0002101824	1090
bin	0.0002110368	1022
bin	0.0002118912	1005
bin	0.0002127456	984
bin	0.0002136	983
bin	0.0002144544	998
bin	0.0002153088	1031
bin	0.0002161632	1088
bin	0.0002170176	1021
bin	0.000217872	1026
bin	0.0002187264	1011
bin	0.0002195808	1082
bin	0.0002204352	1028
bin	0.0002212896	1024
bin	0.000222144	1023
bin	0.0002229984	1033
bin	0.0002238528	1008
bin	0.0002247072	1027
bin	0.0002255616	1023
bin	0.000226416	1010
bin	0.0002272704	1022
bin	0.0002281248	953
bin	0.0002289792	969
bin	0.0002298336	964
bin	0.000230688	953
bin	0.0002315424	901
bin	0.0002323968	918
bin	0.0002332512	907
bin	0.0002341056	924
bin	0.00023496	876
bin	0.0002358144	828
bin	0.0002366688	822
bin	0.0002375232	893
bin	0.0002383776	849
bin	0.000239232	810
bin	0.0002400864	839
bin	0.0002409408	811
bin	0.0002417952	830
bin	0.0002426496	782
bin	0.000243504	812
bin	0.0002443584	835
bin	0.0002452128	848
bin	0.0002460672	852
bin	0.0002469216	858
bin	0.000247776	831
bin	0.0002486304	841
bin	0.0002494848	889
bin	0.0002503392	887
bin	0.0002511936	874
bin	0.000252048	886
bin	0.0002529024	900
bin	0.0002537568	855
bin	0.0002546112	874
bin	0.0002554656	867
bin	0.00025632	825
bin	0.0002571744	822
bin	0.0002580288	769
bin	0.0002588832	779
bin	0.0002597376	770
bin	0.000260592	708
bin	0.0002614464	682
bin	0.0002623008	660
bin	0.0002631552	700
bin	0.0002640096	742
bin	0.000264864	765
bin	0.0002657184	749
bin	0.0002665728	799
bin	0.0002674272	817
bin	0.0002682816	767
bin	0.000269136	837
bin	0.0002699904	795
bin	0.0002708448	787
bin	0.0002716992	830
bin	0.0002725536	786
bin	0.000273408	825
bin	0.0002742624	802
bin	0.0002751168	772
bin	0.0002759712	785
bin	0.0002768256	795
bin	0.00027768	800
bin	0.0002785344	809
bin	0.0002793888	795
bin	0.0002802432	810
bin	0.0002810976	809
bin	0.000281952	745
bin	0.0002828064	763
bin	0.0002836608	743
bin	0.0002845152	729
bin	0.0002853696	774
bin	0.000286224	782
bin	0.0002870784	818
bin	0.0002879328	763
bin	0.0002887872	727
bin	0.0002896416	708
bin	0.000290496	763
bin	0.0002913504	765
bin	0.0002922048	787
bin	0.0002930592	758
bin	0.0002939136	770
bin	0.000294768	761
bin	0.0002956224	779
bin	0.0002964768	781
bin	0.0002973312	780
bin	0.0002981856	768
bin	0.00029904	772
bin	0.0002998944	747
bin	0.0003007488	783
bin	0.0003016032	758
bin	0.0003024576	778
bin	0.000303312	779
bin	0.0003041664	762
bin	0.0003050208	782
bin	0.0003058752	686
bin	0.0003067296	691
bin	0.000307584	652
bin	0.0003084384	676
bin	0.0003092928	666
bin	0.0003101472	673
bin	0.0003110016	701
bin	0.000311856	734
bin	0.0003127104	678
bin	0.0003135648	680
bin	0.0003144192	696
bin	0.0003152736	684
bin	0.000316128	675
bin	0.0003169824	678
bin	0.0003178368	715
bin	0.0003186912	695
bin	0.0003195456	715
bin	0.0003204	705
bin	0.0003212544	736
bin	0.0003221088	781
bin	0.0003229632	768
bin	0.0003238176	780
bin	0.000324672	772
bin	0.0003255264	795
bin	0.0003263808	803
bin	0.0003272352	782
bin	0.0003280896	756
bin	0.000328944	708
bin	0.0003297984	694
bin	0.0003306528	749
bin	0.0003315072	703
bin	0.0003323616	701
bin	0.000333216	688
bin	0.0003340704	750
bin	0.0003349248	720
bin	0.0003357792	681
bin	0.0003366336	740
bin	0.000337488	715
bin	0.0003383424	695
bin	0.0003391968	648
bin	0.0003400512	669
bin	0.0003409056	710
bin	0.00034176	712
bin	0.0003426144	665
bin	0.0003434688	742
bin	0.0003443232	729
bin	0.0003451776	727
bin	0.000346032	766
bin	0.0003468864	730
bin	0.0003477408	757
bin	0.0003485952	783
bin	0.0003494496	744
bin	0.000350304	787
bin	0.0003511584	753
bin	0.0003520128	724
bin	0.0003528672	707
bin	0.0003537216	742
bin	0.000354576	699
bin	0.0003554304	710
bin	0.0003562848	697
bin	0.0003571392	677
bin	0.0003579936	606
bin	0.000358848	640
bin	0.0003597024	616
bin	0.0003605568	605
bin	0.0003614112	574
bin	0.0003622656	638
bin	0.00036312	644
bin	0.0003639744	691
bin	0.0003648288	685
bin	0.0003656832	709
bin	0.0003665376	738
bin	0.000367392	760
bin	0.0003682464	763
bin	0.0003691008	740
bin	0.0003699552	760
bin	0.0003708096	770
bin	0.000371664	762
bin	0.0003725184	757
bin	0.0003733728	757
bin	0.0003742272	761
bin	0.0003750816	764
bin	0.000375936	805
bin	0.0003767904	777
bin	0.0003776448	729
bin	0.0003784992	720
bin	0.0003793536	747
bin	0.000380208	718
bin	0.0003810624	708
bin	0.0003819168	691
bin	0.0003827712	717
bin	0.0003836256	665
bin	0.00038448	637
bin	0.0003853344	643
bin	0.0003861888	679
bin	0.0003870432	656
bin	0.0003878976	687
bin	0.000388752	709
bin	0.0003896064	694
bin	0.0003904608	728
bin	0.0003913152	744
bin	0.0003921696	702
bin	0.000393024	717
bin	0.0003938784	722
bin	0.0003947328	695
bin	0.0003955872	720
bin	0.0003964416	731
bin	0.000397296	759
bin	0.0003981504	749
bin	0.0003990048	761
bin	0.0003998592	715
bin	0.0004007136	742
bin	0.000401568	727
bin	0.0004024224	685
bin	0.0004032768	700
bin	0.0004041312	687
bin	0.0004049856	656
bin	0.00040584	677
bin	0.0004066944	681
bin	0.0004075488	639
bin	0.0004084032	646
bin	0.0004092576	675
bin	0.000410112	679
bin	0.0004109664	731
bin	0.0004118208	660
bin	0.0004126752	668
bin	0.0004135296	713
bin	0.000414384	723
bin	0.0004152384	709
bin	0.0004160928	737
bin	0.0004169472	740
bin	0.0004178016	720
bin	0.000418656	727
bin	0.0004195104	750
bin	0.0004203648	732
bin	0.0004212192	781
bin	0.0004220736	760
bin	0.000422928	789
bin	0.0004237824	745
bin	0.0004246368	718
bin	0.0004254912	760
bin	0.0004263456	749
bin	0.0004272	5081744
