version 2
run Transposition-29-20120710-09:57:25-25336
attr alg 1
attr buf 8
attr configname Transposition
attr datetime 20120710-09:57:25
attr delta 0.6
attr experiment Transposition
attr ext true
attr inifile altro.ini
attr iterationvars "$buf=8, $ext=true, $ofedge=2, $delta=0.6, $alg=1"
attr iterationvars2 "$buf=8, $ext=true, $ofedge=2, $delta=0.6, $alg=1, $repetition=0"
attr measurement "$buf=8, $ext=true, $ofedge=2, $delta=0.6, $alg=1"
attr network Torus3d_bub
attr ofedge 2
attr processid 25336
attr repetition 0
attr replication #0
attr resultdir altro-results
attr runnumber 29
attr seedset 29

scalar . 	alg 	1
scalar . 	buf 	8
scalar . 	delta 	0.6
scalar . 	ofedge 	2
scalar Torus3d_bub.timer 	#endTime 	0.001329863664745
scalar Torus3d_bub.timer 	#totalHops 	78410517
scalar Torus3d_bub.timer 	#totalPacks 	6291456
scalar Torus3d_bub.timer 	#totalDerouted 	503414
scalar Torus3d_bub.timer 	#totalOutFlanked 	503414
scalar Torus3d_bub.timer 	#totalCQRed 	0
scalar Torus3d_bub.timer 	#LB 	0.000786432
scalar Torus3d_bub.timer 	#ratio 	0.59136287489349
statistic Torus3d_bub.timer 	"Hop Times"
field count 6193152
field mean 2.2431070705287e-06
field stddev 1.5562871651974e-06
field sum 13.891903040059
field sqrsum 4.6161021842022e-05
field min 3.97925854e-07
field max 0.000264054266666
bin	-INF	0
bin	0	0
bin	7.12e-08	0
bin	1.424e-07	0
bin	2.136e-07	0
bin	2.848e-07	0
bin	3.56e-07	414
bin	4.272e-07	12607
bin	4.984e-07	27485
bin	5.696e-07	46203
bin	6.408e-07	64705
bin	7.12e-07	81033
bin	7.832e-07	92279
bin	8.544e-07	98444
bin	9.256e-07	102145
bin	9.968e-07	105811
bin	1.068e-06	109909
bin	1.1392e-06	116977
bin	1.2104e-06	126785
bin	1.2816e-06	139516
bin	1.3528e-06	157783
bin	1.424e-06	177956
bin	1.4952e-06	199209
bin	1.5664e-06	216580
bin	1.6376e-06	229921
bin	1.7088e-06	234006
bin	1.78e-06	235742
bin	1.8512e-06	232330
bin	1.9224e-06	226042
bin	1.9936e-06	220022
bin	2.0648e-06	210072
bin	2.136e-06	200454
bin	2.2072e-06	189007
bin	2.2784e-06	176415
bin	2.3496e-06	164092
bin	2.4208e-06	150278
bin	2.492e-06	138767
bin	2.5632e-06	129115
bin	2.6344e-06	117647
bin	2.7056e-06	106755
bin	2.7768e-06	98876
bin	2.848e-06	90513
bin	2.9192e-06	83919
bin	2.9904e-06	77567
bin	3.0616e-06	72068
bin	3.1328e-06	67113
bin	3.204e-06	61812
bin	3.2752e-06	56861
bin	3.3464e-06	53795
bin	3.4176e-06	48862
bin	3.4888e-06	45295
bin	3.56e-06	41720
bin	3.6312e-06	38193
bin	3.7024e-06	35580
bin	3.7736e-06	33161
bin	3.8448e-06	30486
bin	3.916e-06	28855
bin	3.9872e-06	26432
bin	4.0584e-06	24924
bin	4.1296e-06	23471
bin	4.2008e-06	21225
bin	4.272e-06	19413
bin	4.3432e-06	17710
bin	4.4144e-06	15741
bin	4.4856e-06	14287
bin	4.5568e-06	13085
bin	4.628e-06	11620
bin	4.6992e-06	10421
bin	4.7704e-06	9469
bin	4.8416e-06	8748
bin	4.9128e-06	8171
bin	4.984e-06	7176
bin	5.0552e-06	7052
bin	5.1264e-06	6580
bin	5.1976e-06	6166
bin	5.2688e-06	6014
bin	5.34e-06	5425
bin	5.4112e-06	5220
bin	5.4824e-06	5183
bin	5.5536e-06	4748
bin	5.6248e-06	4626
bin	5.696e-06	4228
bin	5.7672e-06	3910
bin	5.8384e-06	4106
bin	5.9096e-06	3647
bin	5.9808e-06	3834
bin	6.052e-06	3541
bin	6.1232e-06	3296
bin	6.1944e-06	3454
bin	6.2656e-06	3123
bin	6.3368e-06	3140
bin	6.408e-06	2974
bin	6.4792e-06	2685
bin	6.5504e-06	2875
bin	6.6216e-06	2547
bin	6.6928e-06	2441
bin	6.764e-06	2294
bin	6.8352e-06	2249
bin	6.9064e-06	2174
bin	6.9776e-06	2149
bin	7.0488e-06	2043
bin	7.12e-06	1962
bin	7.1912e-06	1817
bin	7.2624e-06	1819
bin	7.3336e-06	1715
bin	7.4048e-06	1691
bin	7.476e-06	1626
bin	7.5472e-06	1519
bin	7.6184e-06	1657
bin	7.6896e-06	1591
bin	7.7608e-06	1515
bin	7.832e-06	1438
bin	7.9032e-06	1424
bin	7.9744e-06	1442
bin	8.0456e-06	1417
bin	8.1168e-06	1360
bin	8.188e-06	1420
bin	8.2592e-06	1378
bin	8.3304e-06	1251
bin	8.4016e-06	1251
bin	8.4728e-06	1091
bin	8.544e-06	1027
bin	8.6152e-06	876
bin	8.6864e-06	789
bin	8.7576e-06	756
bin	8.8288e-06	558
bin	8.9e-06	488
bin	8.9712e-06	406
bin	9.0424e-06	327
bin	9.1136e-06	278
bin	9.1848e-06	249
bin	9.256e-06	249
bin	9.3272e-06	226
bin	9.3984e-06	188
bin	9.4696e-06	186
bin	9.5408e-06	179
bin	9.612e-06	165
bin	9.6832e-06	173
bin	9.7544e-06	142
bin	9.8256e-06	149
bin	9.8968e-06	135
bin	9.968e-06	131
bin	1.00392e-05	110
bin	1.01104e-05	134
bin	1.01816e-05	118
bin	1.02528e-05	123
bin	1.0324e-05	131
bin	1.03952e-05	143
bin	1.04664e-05	113
bin	1.05376e-05	126
bin	1.06088e-05	109
bin	1.068e-05	87
bin	1.07512e-05	91
bin	1.08224e-05	83
bin	1.08936e-05	80
bin	1.09648e-05	93
bin	1.1036e-05	78
bin	1.11072e-05	81
bin	1.11784e-05	84
bin	1.12496e-05	77
bin	1.13208e-05	77
bin	1.1392e-05	108
bin	1.14632e-05	74
bin	1.15344e-05	82
bin	1.16056e-05	90
bin	1.16768e-05	77
bin	1.1748e-05	86
bin	1.18192e-05	69
bin	1.18904e-05	99
bin	1.19616e-05	67
bin	1.20328e-05	80
bin	1.2104e-05	69
bin	1.21752e-05	82
bin	1.22464e-05	79
bin	1.23176e-05	83
bin	1.23888e-05	75
bin	1.246e-05	95
bin	1.25312e-05	76
bin	1.26024e-05	95
bin	1.26736e-05	97
bin	1.27448e-05	101
bin	1.2816e-05	106
bin	1.28872e-05	113
bin	1.29584e-05	79
bin	1.30296e-05	87
bin	1.31008e-05	79
bin	1.3172e-05	67
bin	1.32432e-05	52
bin	1.33144e-05	37
bin	1.33856e-05	34
bin	1.34568e-05	40
bin	1.3528e-05	42
bin	1.35992e-05	43
bin	1.36704e-05	62
bin	1.37416e-05	53
bin	1.38128e-05	54
bin	1.3884e-05	49
bin	1.39552e-05	56
bin	1.40264e-05	48
bin	1.40976e-05	55
bin	1.41688e-05	49
bin	1.424e-05	38
bin	1.43112e-05	29
bin	1.43824e-05	32
bin	1.44536e-05	27
bin	1.45248e-05	27
bin	1.4596e-05	33
bin	1.46672e-05	39
bin	1.47384e-05	32
bin	1.48096e-05	22
bin	1.48808e-05	34
bin	1.4952e-05	40
bin	1.50232e-05	31
bin	1.50944e-05	34
bin	1.51656e-05	28
bin	1.52368e-05	41
bin	1.5308e-05	42
bin	1.53792e-05	34
bin	1.54504e-05	41
bin	1.55216e-05	39
bin	1.55928e-05	47
bin	1.5664e-05	47
bin	1.57352e-05	48
bin	1.58064e-05	64
bin	1.58776e-05	57
bin	1.59488e-05	62
bin	1.602e-05	55
bin	1.60912e-05	86
bin	1.61624e-05	55
bin	1.62336e-05	57
bin	1.63048e-05	76
bin	1.6376e-05	80
bin	1.64472e-05	87
bin	1.65184e-05	99
bin	1.65896e-05	82
bin	1.66608e-05	107
bin	1.6732e-05	100
bin	1.68032e-05	113
bin	1.68744e-05	97
bin	1.69456e-05	86
bin	1.70168e-05	92
bin	1.7088e-05	75
bin	1.71592e-05	65
bin	1.72304e-05	43
bin	1.73016e-05	30
bin	1.73728e-05	33
bin	1.7444e-05	28
bin	1.75152e-05	25
bin	1.75864e-05	20
bin	1.76576e-05	23
bin	1.77288e-05	25
bin	1.78e-05	17
bin	1.78712e-05	10
bin	1.79424e-05	9
bin	1.80136e-05	9
bin	1.80848e-05	7
bin	1.8156e-05	12
bin	1.82272e-05	11
bin	1.82984e-05	18
bin	1.83696e-05	17
bin	1.84408e-05	14
bin	1.8512e-05	18
bin	1.85832e-05	17
bin	1.86544e-05	16
bin	1.87256e-05	3
bin	1.87968e-05	7
bin	1.8868e-05	9
bin	1.89392e-05	12
bin	1.90104e-05	15
bin	1.90816e-05	20
bin	1.91528e-05	16
bin	1.9224e-05	15
bin	1.92952e-05	17
bin	1.93664e-05	13
bin	1.94376e-05	11
bin	1.95088e-05	4
bin	1.958e-05	10
bin	1.96512e-05	7
bin	1.97224e-05	12
bin	1.97936e-05	6
bin	1.98648e-05	8
bin	1.9936e-05	10
bin	2.00072e-05	9
bin	2.00784e-05	10
bin	2.01496e-05	11
bin	2.02208e-05	8
bin	2.0292e-05	16
bin	2.03632e-05	9
bin	2.04344e-05	24
bin	2.05056e-05	16
bin	2.05768e-05	26
bin	2.0648e-05	36
bin	2.07192e-05	18
bin	2.07904e-05	26
bin	2.08616e-05	35
bin	2.09328e-05	24
bin	2.1004e-05	26
bin	2.10752e-05	16
bin	2.11464e-05	22
bin	2.12176e-05	21
bin	2.12888e-05	15
bin	2.136e-05	8
bin	2.14312e-05	12
bin	2.15024e-05	8
bin	2.15736e-05	7
bin	2.16448e-05	6
bin	2.1716e-05	2
bin	2.17872e-05	7
bin	2.18584e-05	1
bin	2.19296e-05	1
bin	2.20008e-05	7
bin	2.2072e-05	12
bin	2.21432e-05	6
bin	2.22144e-05	8
bin	2.22856e-05	6
bin	2.23568e-05	7
bin	2.2428e-05	9
bin	2.24992e-05	9
bin	2.25704e-05	12
bin	2.26416e-05	5
bin	2.27128e-05	9
bin	2.2784e-05	7
bin	2.28552e-05	8
bin	2.29264e-05	15
bin	2.29976e-05	12
bin	2.30688e-05	13
bin	2.314e-05	10
bin	2.32112e-05	9
bin	2.32824e-05	3
bin	2.33536e-05	3
bin	2.34248e-05	10
bin	2.3496e-05	6
bin	2.35672e-05	9
bin	2.36384e-05	7
bin	2.37096e-05	13
bin	2.37808e-05	15
bin	2.3852e-05	11
bin	2.39232e-05	13
bin	2.39944e-05	7
bin	2.40656e-05	9
bin	2.41368e-05	11
bin	2.4208e-05	11
bin	2.42792e-05	13
bin	2.43504e-05	12
bin	2.44216e-05	15
bin	2.44928e-05	23
bin	2.4564e-05	18
bin	2.46352e-05	21
bin	2.47064e-05	22
bin	2.47776e-05	25
bin	2.48488e-05	29
bin	2.492e-05	35
bin	2.49912e-05	32
bin	2.50624e-05	34
bin	2.51336e-05	39
bin	2.52048e-05	22
bin	2.5276e-05	21
bin	2.53472e-05	18
bin	2.54184e-05	11
bin	2.54896e-05	6
bin	2.55608e-05	5
bin	2.5632e-05	11
bin	2.57032e-05	10
bin	2.57744e-05	11
bin	2.58456e-05	5
bin	2.59168e-05	6
bin	2.5988e-05	4
bin	2.60592e-05	3
bin	2.61304e-05	2
bin	2.62016e-05	6
bin	2.62728e-05	4
bin	2.6344e-05	3
bin	2.64152e-05	3
bin	2.64864e-05	7
bin	2.65576e-05	3
bin	2.66288e-05	3
bin	2.67e-05	2
bin	2.67712e-05	1
bin	2.68424e-05	2
bin	2.69136e-05	1
bin	2.69848e-05	3
bin	2.7056e-05	1
bin	2.71272e-05	1
bin	2.71984e-05	4
bin	2.72696e-05	4
bin	2.73408e-05	4
bin	2.7412e-05	3
bin	2.74832e-05	4
bin	2.75544e-05	4
bin	2.76256e-05	4
bin	2.76968e-05	10
bin	2.7768e-05	5
bin	2.78392e-05	6
bin	2.79104e-05	4
bin	2.79816e-05	3
bin	2.80528e-05	2
bin	2.8124e-05	1
bin	2.81952e-05	0
bin	2.82664e-05	3
bin	2.83376e-05	3
bin	2.84088e-05	1
bin	2.848e-05	4
bin	2.85512e-05	2
bin	2.86224e-05	5
bin	2.86936e-05	3
bin	2.87648e-05	8
bin	2.8836e-05	7
bin	2.89072e-05	9
bin	2.89784e-05	8
bin	2.90496e-05	4
bin	2.91208e-05	5
bin	2.9192e-05	9
bin	2.92632e-05	7
bin	2.93344e-05	8
bin	2.94056e-05	5
bin	2.94768e-05	3
bin	2.9548e-05	2
bin	2.96192e-05	6
bin	2.96904e-05	1
bin	2.97616e-05	2
bin	2.98328e-05	4
bin	2.9904e-05	1
bin	2.99752e-05	2
bin	3.00464e-05	2
bin	3.01176e-05	0
bin	3.01888e-05	3
bin	3.026e-05	2
bin	3.03312e-05	5
bin	3.04024e-05	3
bin	3.04736e-05	1
bin	3.05448e-05	2
bin	3.0616e-05	3
bin	3.06872e-05	5
bin	3.07584e-05	3
bin	3.08296e-05	1
bin	3.09008e-05	4
bin	3.0972e-05	0
bin	3.10432e-05	3
bin	3.11144e-05	1
bin	3.11856e-05	0
bin	3.12568e-05	0
bin	3.1328e-05	2
bin	3.13992e-05	0
bin	3.14704e-05	1
bin	3.15416e-05	5
bin	3.16128e-05	2
bin	3.1684e-05	2
bin	3.17552e-05	6
bin	3.18264e-05	2
bin	3.18976e-05	3
bin	3.19688e-05	4
bin	3.204e-05	2
bin	3.21112e-05	6
bin	3.21824e-05	5
bin	3.22536e-05	2
bin	3.23248e-05	2
bin	3.2396e-05	2
bin	3.24672e-05	0
bin	3.25384e-05	2
bin	3.26096e-05	5
bin	3.26808e-05	3
bin	3.2752e-05	11
bin	3.28232e-05	8
bin	3.28944e-05	4
bin	3.29656e-05	10
bin	3.30368e-05	9
bin	3.3108e-05	12
bin	3.31792e-05	13
bin	3.32504e-05	10
bin	3.33216e-05	14
bin	3.33928e-05	16
bin	3.3464e-05	15
bin	3.35352e-05	14
bin	3.36064e-05	4
bin	3.36776e-05	6
bin	3.37488e-05	5
bin	3.382e-05	6
bin	3.38912e-05	6
bin	3.39624e-05	4
bin	3.40336e-05	3
bin	3.41048e-05	8
bin	3.4176e-05	3
bin	3.42472e-05	7
bin	3.43184e-05	3
bin	3.43896e-05	4
bin	3.44608e-05	2
bin	3.4532e-05	5
bin	3.46032e-05	4
bin	3.46744e-05	5
bin	3.47456e-05	2
bin	3.48168e-05	6
bin	3.4888e-05	3
bin	3.49592e-05	2
bin	3.50304e-05	4
bin	3.51016e-05	2
bin	3.51728e-05	3
bin	3.5244e-05	2
bin	3.53152e-05	1
bin	3.53864e-05	0
bin	3.54576e-05	5
bin	3.55288e-05	1
bin	3.56e-05	777
statistic Torus3d_bub.timer 	"Life Times"
field count 6291456
field mean 2.6306207377958e-05
field stddev 1.3936741743873e-05
field sum 165.5043462453
field sqrsum 0.0055757983890018
field min 3.77331349e-07
field max 0.001325928666666
bin	-INF	0
bin	0	6144
bin	8.544e-07	8192
bin	1.7088e-06	14435
bin	2.5632e-06	24035
bin	3.4176e-06	34013
bin	4.272e-06	41742
bin	5.1264e-06	49715
bin	5.9808e-06	55538
bin	6.8352e-06	64448
bin	7.6896e-06	73806
bin	8.544e-06	81591
bin	9.3984e-06	87791
bin	1.02528e-05	86101
bin	1.11072e-05	88765
bin	1.19616e-05	92501
bin	1.2816e-05	98164
bin	1.36704e-05	102714
bin	1.45248e-05	107743
bin	1.53792e-05	112689
bin	1.62336e-05	118447
bin	1.7088e-05	124118
bin	1.79424e-05	129538
bin	1.87968e-05	135453
bin	1.96512e-05	142338
bin	2.05056e-05	151212
bin	2.136e-05	159569
bin	2.22144e-05	168646
bin	2.30688e-05	179349
bin	2.39232e-05	190452
bin	2.47776e-05	199950
bin	2.5632e-05	209732
bin	2.64864e-05	218461
bin	2.73408e-05	219885
bin	2.81952e-05	217985
bin	2.90496e-05	212214
bin	2.9904e-05	205259
bin	3.07584e-05	195159
bin	3.16128e-05	184247
bin	3.24672e-05	173273
bin	3.33216e-05	161602
bin	3.4176e-05	149994
bin	3.50304e-05	138681
bin	3.58848e-05	126802
bin	3.67392e-05	117702
bin	3.75936e-05	109005
bin	3.8448e-05	100513
bin	3.93024e-05	92506
bin	4.01568e-05	84233
bin	4.10112e-05	76189
bin	4.18656e-05	65331
bin	4.272e-05	52733
bin	4.35744e-05	42101
bin	4.44288e-05	32439
bin	4.52832e-05	25667
bin	4.61376e-05	19974
bin	4.6992e-05	15298
bin	4.78464e-05	12041
bin	4.87008e-05	9336
bin	4.95552e-05	7437
bin	5.04096e-05	6297
bin	5.1264e-05	5145
bin	5.21184e-05	4395
bin	5.29728e-05	3903
bin	5.38272e-05	3363
bin	5.46816e-05	2857
bin	5.5536e-05	2537
bin	5.63904e-05	2265
bin	5.72448e-05	1889
bin	5.80992e-05	1707
bin	5.89536e-05	1605
bin	5.9808e-05	1387
bin	6.06624e-05	1231
bin	6.15168e-05	1184
bin	6.23712e-05	971
bin	6.32256e-05	992
bin	6.408e-05	941
bin	6.49344e-05	810
bin	6.57888e-05	812
bin	6.66432e-05	730
bin	6.74976e-05	747
bin	6.8352e-05	757
bin	6.92064e-05	770
bin	7.00608e-05	744
bin	7.09152e-05	798
bin	7.17696e-05	760
bin	7.2624e-05	832
bin	7.34784e-05	841
bin	7.43328e-05	855
bin	7.51872e-05	862
bin	7.60416e-05	888
bin	7.6896e-05	949
bin	7.77504e-05	986
bin	7.86048e-05	1138
bin	7.94592e-05	1189
bin	8.03136e-05	1313
bin	8.1168e-05	1438
bin	8.20224e-05	1646
bin	8.28768e-05	1690
bin	8.37312e-05	1696
bin	8.45856e-05	1650
bin	8.544e-05	1429
bin	8.62944e-05	1234
bin	8.71488e-05	1045
bin	8.80032e-05	848
bin	8.88576e-05	734
bin	8.9712e-05	575
bin	9.05664e-05	408
bin	9.14208e-05	387
bin	9.22752e-05	349
bin	9.31296e-05	290
bin	9.3984e-05	254
bin	9.48384e-05	218
bin	9.56928e-05	208
bin	9.65472e-05	159
bin	9.74016e-05	158
bin	9.8256e-05	173
bin	9.91104e-05	140
bin	9.99648e-05	128
bin	0.0001008192	102
bin	0.0001016736	101
bin	0.000102528	104
bin	0.0001033824	91
bin	0.0001042368	83
bin	0.0001050912	79
bin	0.0001059456	82
bin	0.0001068	63
bin	0.0001076544	73
bin	0.0001085088	66
bin	0.0001093632	70
bin	0.0001102176	55
bin	0.000111072	68
bin	0.0001119264	62
bin	0.0001127808	75
bin	0.0001136352	77
bin	0.0001144896	76
bin	0.000115344	71
bin	0.0001161984	76
bin	0.0001170528	102
bin	0.0001179072	118
bin	0.0001187616	138
bin	0.000119616	123
bin	0.0001204704	180
bin	0.0001213248	202
bin	0.0001221792	230
bin	0.0001230336	255
bin	0.000123888	308
bin	0.0001247424	314
bin	0.0001255968	323
bin	0.0001264512	299
bin	0.0001273056	260
bin	0.00012816	238
bin	0.0001290144	209
bin	0.0001298688	171
bin	0.0001307232	158
bin	0.0001315776	117
bin	0.000132432	86
bin	0.0001332864	69
bin	0.0001341408	65
bin	0.0001349952	62
bin	0.0001358496	56
bin	0.000136704	54
bin	0.0001375584	49
bin	0.0001384128	29
bin	0.0001392672	33
bin	0.0001401216	23
bin	0.000140976	22
bin	0.0001418304	22
bin	0.0001426848	23
bin	0.0001435392	14
bin	0.0001443936	22
bin	0.000145248	22
bin	0.0001461024	16
bin	0.0001469568	15
bin	0.0001478112	19
bin	0.0001486656	20
bin	0.00014952	16
bin	0.0001503744	16
bin	0.0001512288	16
bin	0.0001520832	13
bin	0.0001529376	25
bin	0.000153792	24
bin	0.0001546464	17
bin	0.0001555008	23
bin	0.0001563552	22
bin	0.0001572096	30
bin	0.000158064	22
bin	0.0001589184	25
bin	0.0001597728	46
bin	0.0001606272	41
bin	0.0001614816	45
bin	0.000162336	58
bin	0.0001631904	67
bin	0.0001640448	111
bin	0.0001648992	113
bin	0.0001657536	141
bin	0.000166608	152
bin	0.0001674624	113
bin	0.0001683168	101
bin	0.0001691712	94
bin	0.0001700256	87
bin	0.00017088	96
bin	0.0001717344	64
bin	0.0001725888	49
bin	0.0001734432	39
bin	0.0001742976	32
bin	0.000175152	18
bin	0.0001760064	21
bin	0.0001768608	29
bin	0.0001777152	19
bin	0.0001785696	10
bin	0.000179424	20
bin	0.0001802784	16
bin	0.0001811328	9
bin	0.0001819872	10
bin	0.0001828416	7
bin	0.000183696	11
bin	0.0001845504	9
bin	0.0001854048	11
bin	0.0001862592	6
bin	0.0001871136	4
bin	0.000187968	3
bin	0.0001888224	6
bin	0.0001896768	6
bin	0.0001905312	5
bin	0.0001913856	7
bin	0.00019224	6
bin	0.0001930944	10
bin	0.0001939488	10
bin	0.0001948032	7
bin	0.0001956576	5
bin	0.000196512	10
bin	0.0001973664	12
bin	0.0001982208	10
bin	0.0001990752	15
bin	0.0001999296	16
bin	0.000200784	20
bin	0.0002016384	16
bin	0.0002024928	24
bin	0.0002033472	17
bin	0.0002042016	40
bin	0.000205056	45
bin	0.0002059104	69
bin	0.0002067648	56
bin	0.0002076192	66
bin	0.0002084736	62
bin	0.000209328	52
bin	0.0002101824	48
bin	0.0002110368	39
bin	0.0002118912	42
bin	0.0002127456	28
bin	0.0002136	22
bin	0.0002144544	13
bin	0.0002153088	9
bin	0.0002161632	11
bin	0.0002170176	10
bin	0.000217872	6
bin	0.0002187264	11
bin	0.0002195808	9
bin	0.0002204352	7
bin	0.0002212896	7
bin	0.000222144	6
bin	0.0002229984	2
bin	0.0002238528	5
bin	0.0002247072	5
bin	0.0002255616	6
bin	0.000226416	1
bin	0.0002272704	3
bin	0.0002281248	2
bin	0.0002289792	1
bin	0.0002298336	1
bin	0.000230688	2
bin	0.0002315424	2
bin	0.0002323968	2
bin	0.0002332512	2
bin	0.0002341056	8
bin	0.00023496	1
bin	0.0002358144	4
bin	0.0002366688	3
bin	0.0002375232	3
bin	0.0002383776	9
bin	0.000239232	6
bin	0.0002400864	5
bin	0.0002409408	6
bin	0.0002417952	7
bin	0.0002426496	10
bin	0.000243504	8
bin	0.0002443584	10
bin	0.0002452128	15
bin	0.0002460672	16
bin	0.0002469216	32
bin	0.000247776	45
bin	0.0002486304	41
bin	0.0002494848	30
bin	0.0002503392	30
bin	0.0002511936	27
bin	0.000252048	24
bin	0.0002529024	16
bin	0.0002537568	9
bin	0.0002546112	8
bin	0.0002554656	6
bin	0.00025632	9
bin	0.0002571744	10
bin	0.0002580288	7
bin	0.0002588832	9
bin	0.0002597376	2
bin	0.000260592	5
bin	0.0002614464	6
bin	0.0002623008	3
bin	0.0002631552	3
bin	0.0002640096	1
bin	0.000264864	1
bin	0.0002657184	0
bin	0.0002665728	6
bin	0.0002674272	2
bin	0.0002682816	1
bin	0.000269136	2
bin	0.0002699904	3
bin	0.0002708448	1
bin	0.0002716992	1
bin	0.0002725536	0
bin	0.000273408	0
bin	0.0002742624	0
bin	0.0002751168	2
bin	0.0002759712	2
bin	0.0002768256	3
bin	0.00027768	0
bin	0.0002785344	2
bin	0.0002793888	3
bin	0.0002802432	0
bin	0.0002810976	0
bin	0.000281952	0
bin	0.0002828064	1
bin	0.0002836608	5
bin	0.0002845152	4
bin	0.0002853696	4
bin	0.000286224	9
bin	0.0002870784	12
bin	0.0002879328	12
bin	0.0002887872	13
bin	0.0002896416	20
bin	0.000290496	20
bin	0.0002913504	17
bin	0.0002922048	14
bin	0.0002930592	5
bin	0.0002939136	10
bin	0.000294768	6
bin	0.0002956224	3
bin	0.0002964768	6
bin	0.0002973312	5
bin	0.0002981856	4
bin	0.00029904	4
bin	0.0002998944	3
bin	0.0003007488	3
bin	0.0003016032	4
bin	0.0003024576	1
bin	0.000303312	0
bin	0.0003041664	0
bin	0.0003050208	2
bin	0.0003058752	1
bin	0.0003067296	1
bin	0.000307584	0
bin	0.0003084384	1
bin	0.0003092928	0
bin	0.0003101472	2
bin	0.0003110016	0
bin	0.000311856	0
bin	0.0003127104	0
bin	0.0003135648	0
bin	0.0003144192	1
bin	0.0003152736	1
bin	0.000316128	1
bin	0.0003169824	0
bin	0.0003178368	1
bin	0.0003186912	0
bin	0.0003195456	0
bin	0.0003204	1
bin	0.0003212544	1
bin	0.0003221088	1
bin	0.0003229632	1
bin	0.0003238176	2
bin	0.000324672	2
bin	0.0003255264	2
bin	0.0003263808	1
bin	0.0003272352	0
bin	0.0003280896	8
bin	0.000328944	8
bin	0.0003297984	11
bin	0.0003306528	6
bin	0.0003315072	6
bin	0.0003323616	8
bin	0.000333216	9
bin	0.0003340704	14
bin	0.0003349248	6
bin	0.0003357792	2
bin	0.0003366336	4
bin	0.000337488	8
bin	0.0003383424	3
bin	0.0003391968	4
bin	0.0003400512	4
bin	0.0003409056	6
bin	0.00034176	2
bin	0.0003426144	1
bin	0.0003434688	1
bin	0.0003443232	2
bin	0.0003451776	1
bin	0.000346032	1
bin	0.0003468864	1
bin	0.0003477408	0
bin	0.0003485952	1
bin	0.0003494496	4
bin	0.000350304	0
bin	0.0003511584	0
bin	0.0003520128	1
bin	0.0003528672	0
bin	0.0003537216	0
bin	0.000354576	5
bin	0.0003554304	2
bin	0.0003562848	1
bin	0.0003571392	1
bin	0.0003579936	1
bin	0.000358848	1
bin	0.0003597024	3
bin	0.0003605568	0
bin	0.0003614112	1
bin	0.0003622656	2
bin	0.00036312	1
bin	0.0003639744	0
bin	0.0003648288	2
bin	0.0003656832	1
bin	0.0003665376	5
bin	0.000367392	6
bin	0.0003682464	3
bin	0.0003691008	8
bin	0.0003699552	8
bin	0.0003708096	8
bin	0.000371664	15
bin	0.0003725184	8
bin	0.0003733728	4
bin	0.0003742272	7
bin	0.0003750816	3
bin	0.000375936	5
bin	0.0003767904	5
bin	0.0003776448	2
bin	0.0003784992	2
bin	0.0003793536	2
bin	0.000380208	2
bin	0.0003810624	2
bin	0.0003819168	2
bin	0.0003827712	0
bin	0.0003836256	1
bin	0.00038448	1
bin	0.0003853344	3
bin	0.0003861888	1
bin	0.0003870432	1
bin	0.0003878976	1
bin	0.000388752	0
bin	0.0003896064	0
bin	0.0003904608	2
bin	0.0003913152	0
bin	0.0003921696	1
bin	0.000393024	1
bin	0.0003938784	0
bin	0.0003947328	1
bin	0.0003955872	1
bin	0.0003964416	2
bin	0.000397296	2
bin	0.0003981504	0
bin	0.0003990048	0
bin	0.0003998592	1
bin	0.0004007136	0
bin	0.000401568	0
bin	0.0004024224	0
bin	0.0004032768	0
bin	0.0004041312	0
bin	0.0004049856	3
bin	0.00040584	1
bin	0.0004066944	1
bin	0.0004075488	0
bin	0.0004084032	0
bin	0.0004092576	1
bin	0.000410112	4
bin	0.0004109664	6
bin	0.0004118208	3
bin	0.0004126752	4
bin	0.0004135296	6
bin	0.000414384	12
bin	0.0004152384	1
bin	0.0004160928	1
bin	0.0004169472	4
bin	0.0004178016	5
bin	0.000418656	2
bin	0.0004195104	4
bin	0.0004203648	2
bin	0.0004212192	1
bin	0.0004220736	2
bin	0.000422928	0
bin	0.0004237824	0
bin	0.0004246368	1
bin	0.0004254912	0
bin	0.0004263456	0
bin	0.0004272	423
