version 2
run Transposition-11-20120710-08:09:57-25258
attr alg 3
attr buf 8
attr configname Transposition
attr datetime 20120710-08:09:57
attr delta 0.6
attr experiment Transposition
attr ext true
attr inifile altro.ini
attr iterationvars "$buf=8, $ext=true, $ofedge=1, $delta=0.6, $alg=3"
attr iterationvars2 "$buf=8, $ext=true, $ofedge=1, $delta=0.6, $alg=3, $repetition=0"
attr measurement "$buf=8, $ext=true, $ofedge=1, $delta=0.6, $alg=3"
attr network Torus3d_bub
attr ofedge 1
attr processid 25258
attr repetition 0
attr replication #0
attr resultdir altro-results
attr runnumber 11
attr seedset 11

scalar . 	alg 	3
scalar . 	buf 	8
scalar . 	delta 	0.6
scalar . 	ofedge 	1
scalar Torus3d_bub.timer 	#endTime 	0.001327151332053
scalar Torus3d_bub.timer 	#totalHops 	76965361
scalar Torus3d_bub.timer 	#totalPacks 	6291456
scalar Torus3d_bub.timer 	#totalDerouted 	769123
scalar Torus3d_bub.timer 	#totalOutFlanked 	439307
scalar Torus3d_bub.timer 	#totalCQRed 	329816
scalar Torus3d_bub.timer 	#LB 	0.000786432
scalar Torus3d_bub.timer 	#ratio 	0.59257145813466
statistic Torus3d_bub.timer 	"Hop Times"
field count 6193152
field mean 2.2003528778919e-06
field stddev 1.2597443762904e-06
field sum 13.627119826422
field sqrsum 3.981272980682e-05
field min 3.97899871e-07
field max 0.000255998866666
bin	-INF	0
bin	0	0
bin	7.12e-08	0
bin	1.424e-07	0
bin	2.136e-07	0
bin	2.848e-07	0
bin	3.56e-07	496
bin	4.272e-07	14908
bin	4.984e-07	31531
bin	5.696e-07	50864
bin	6.408e-07	71357
bin	7.12e-07	87606
bin	7.832e-07	99239
bin	8.544e-07	105169
bin	9.256e-07	108532
bin	9.968e-07	112324
bin	1.068e-06	114575
bin	1.1392e-06	117734
bin	1.2104e-06	125033
bin	1.2816e-06	136727
bin	1.3528e-06	157087
bin	1.424e-06	179506
bin	1.4952e-06	200844
bin	1.5664e-06	218579
bin	1.6376e-06	230093
bin	1.7088e-06	233818
bin	1.78e-06	233458
bin	1.8512e-06	228918
bin	1.9224e-06	221587
bin	1.9936e-06	215419
bin	2.0648e-06	205865
bin	2.136e-06	196238
bin	2.2072e-06	185918
bin	2.2784e-06	173235
bin	2.3496e-06	161468
bin	2.4208e-06	149617
bin	2.492e-06	138497
bin	2.5632e-06	130142
bin	2.6344e-06	119818
bin	2.7056e-06	109120
bin	2.7768e-06	101636
bin	2.848e-06	93405
bin	2.9192e-06	86201
bin	2.9904e-06	79508
bin	3.0616e-06	72822
bin	3.1328e-06	68153
bin	3.204e-06	62032
bin	3.2752e-06	57036
bin	3.3464e-06	53381
bin	3.4176e-06	48955
bin	3.4888e-06	44619
bin	3.56e-06	41178
bin	3.6312e-06	37371
bin	3.7024e-06	34648
bin	3.7736e-06	31543
bin	3.8448e-06	28987
bin	3.916e-06	27484
bin	3.9872e-06	24954
bin	4.0584e-06	23100
bin	4.1296e-06	21714
bin	4.2008e-06	19268
bin	4.272e-06	17277
bin	4.3432e-06	15767
bin	4.4144e-06	13815
bin	4.4856e-06	12578
bin	4.5568e-06	11216
bin	4.628e-06	10293
bin	4.6992e-06	9613
bin	4.7704e-06	8553
bin	4.8416e-06	7969
bin	4.9128e-06	7386
bin	4.984e-06	6860
bin	5.0552e-06	6485
bin	5.1264e-06	6127
bin	5.1976e-06	5845
bin	5.2688e-06	5698
bin	5.34e-06	5113
bin	5.4112e-06	5078
bin	5.4824e-06	4885
bin	5.5536e-06	4616
bin	5.6248e-06	4514
bin	5.696e-06	4089
bin	5.7672e-06	4071
bin	5.8384e-06	4224
bin	5.9096e-06	3846
bin	5.9808e-06	4016
bin	6.052e-06	3796
bin	6.1232e-06	3631
bin	6.1944e-06	3720
bin	6.2656e-06	3318
bin	6.3368e-06	3499
bin	6.408e-06	3306
bin	6.4792e-06	3118
bin	6.5504e-06	3141
bin	6.6216e-06	2727
bin	6.6928e-06	2770
bin	6.764e-06	2579
bin	6.8352e-06	2357
bin	6.9064e-06	2469
bin	6.9776e-06	2111
bin	7.0488e-06	2105
bin	7.12e-06	2101
bin	7.1912e-06	1815
bin	7.2624e-06	1811
bin	7.3336e-06	1546
bin	7.4048e-06	1576
bin	7.476e-06	1528
bin	7.5472e-06	1412
bin	7.6184e-06	1527
bin	7.6896e-06	1374
bin	7.7608e-06	1306
bin	7.832e-06	1313
bin	7.9032e-06	1143
bin	7.9744e-06	1151
bin	8.0456e-06	1097
bin	8.1168e-06	1059
bin	8.188e-06	1018
bin	8.2592e-06	945
bin	8.3304e-06	940
bin	8.4016e-06	892
bin	8.4728e-06	816
bin	8.544e-06	717
bin	8.6152e-06	584
bin	8.6864e-06	481
bin	8.7576e-06	439
bin	8.8288e-06	290
bin	8.9e-06	284
bin	8.9712e-06	208
bin	9.0424e-06	128
bin	9.1136e-06	144
bin	9.1848e-06	118
bin	9.256e-06	96
bin	9.3272e-06	86
bin	9.3984e-06	81
bin	9.4696e-06	74
bin	9.5408e-06	77
bin	9.612e-06	74
bin	9.6832e-06	68
bin	9.7544e-06	65
bin	9.8256e-06	70
bin	9.8968e-06	57
bin	9.968e-06	55
bin	1.00392e-05	61
bin	1.01104e-05	56
bin	1.01816e-05	43
bin	1.02528e-05	52
bin	1.0324e-05	53
bin	1.03952e-05	39
bin	1.04664e-05	58
bin	1.05376e-05	53
bin	1.06088e-05	42
bin	1.068e-05	37
bin	1.07512e-05	37
bin	1.08224e-05	32
bin	1.08936e-05	39
bin	1.09648e-05	26
bin	1.1036e-05	37
bin	1.11072e-05	36
bin	1.11784e-05	34
bin	1.12496e-05	45
bin	1.13208e-05	40
bin	1.1392e-05	45
bin	1.14632e-05	46
bin	1.15344e-05	44
bin	1.16056e-05	48
bin	1.16768e-05	48
bin	1.1748e-05	54
bin	1.18192e-05	44
bin	1.18904e-05	38
bin	1.19616e-05	41
bin	1.20328e-05	58
bin	1.2104e-05	45
bin	1.21752e-05	41
bin	1.22464e-05	37
bin	1.23176e-05	38
bin	1.23888e-05	42
bin	1.246e-05	42
bin	1.25312e-05	42
bin	1.26024e-05	49
bin	1.26736e-05	47
bin	1.27448e-05	40
bin	1.2816e-05	60
bin	1.28872e-05	51
bin	1.29584e-05	41
bin	1.30296e-05	38
bin	1.31008e-05	28
bin	1.3172e-05	18
bin	1.32432e-05	25
bin	1.33144e-05	18
bin	1.33856e-05	18
bin	1.34568e-05	15
bin	1.3528e-05	18
bin	1.35992e-05	15
bin	1.36704e-05	15
bin	1.37416e-05	16
bin	1.38128e-05	18
bin	1.3884e-05	20
bin	1.39552e-05	18
bin	1.40264e-05	20
bin	1.40976e-05	17
bin	1.41688e-05	12
bin	1.424e-05	11
bin	1.43112e-05	10
bin	1.43824e-05	11
bin	1.44536e-05	9
bin	1.45248e-05	12
bin	1.4596e-05	18
bin	1.46672e-05	11
bin	1.47384e-05	15
bin	1.48096e-05	12
bin	1.48808e-05	11
bin	1.4952e-05	12
bin	1.50232e-05	10
bin	1.50944e-05	8
bin	1.51656e-05	14
bin	1.52368e-05	11
bin	1.5308e-05	23
bin	1.53792e-05	21
bin	1.54504e-05	19
bin	1.55216e-05	21
bin	1.55928e-05	15
bin	1.5664e-05	13
bin	1.57352e-05	21
bin	1.58064e-05	20
bin	1.58776e-05	24
bin	1.59488e-05	26
bin	1.602e-05	20
bin	1.60912e-05	22
bin	1.61624e-05	26
bin	1.62336e-05	35
bin	1.63048e-05	40
bin	1.6376e-05	45
bin	1.64472e-05	47
bin	1.65184e-05	70
bin	1.65896e-05	86
bin	1.66608e-05	66
bin	1.6732e-05	64
bin	1.68032e-05	78
bin	1.68744e-05	60
bin	1.69456e-05	52
bin	1.70168e-05	40
bin	1.7088e-05	38
bin	1.71592e-05	23
bin	1.72304e-05	17
bin	1.73016e-05	23
bin	1.73728e-05	14
bin	1.7444e-05	16
bin	1.75152e-05	16
bin	1.75864e-05	9
bin	1.76576e-05	7
bin	1.77288e-05	11
bin	1.78e-05	7
bin	1.78712e-05	15
bin	1.79424e-05	10
bin	1.80136e-05	7
bin	1.80848e-05	10
bin	1.8156e-05	5
bin	1.82272e-05	7
bin	1.82984e-05	4
bin	1.83696e-05	8
bin	1.84408e-05	6
bin	1.8512e-05	7
bin	1.85832e-05	5
bin	1.86544e-05	1
bin	1.87256e-05	5
bin	1.87968e-05	3
bin	1.8868e-05	2
bin	1.89392e-05	0
bin	1.90104e-05	2
bin	1.90816e-05	5
bin	1.91528e-05	11
bin	1.9224e-05	4
bin	1.92952e-05	5
bin	1.93664e-05	3
bin	1.94376e-05	0
bin	1.95088e-05	2
bin	1.958e-05	3
bin	1.96512e-05	1
bin	1.97224e-05	3
bin	1.97936e-05	1
bin	1.98648e-05	1
bin	1.9936e-05	4
bin	2.00072e-05	2
bin	2.00784e-05	5
bin	2.01496e-05	4
bin	2.02208e-05	2
bin	2.0292e-05	6
bin	2.03632e-05	5
bin	2.04344e-05	5
bin	2.05056e-05	13
bin	2.05768e-05	12
bin	2.0648e-05	13
bin	2.07192e-05	8
bin	2.07904e-05	12
bin	2.08616e-05	13
bin	2.09328e-05	13
bin	2.1004e-05	13
bin	2.10752e-05	8
bin	2.11464e-05	6
bin	2.12176e-05	4
bin	2.12888e-05	6
bin	2.136e-05	6
bin	2.14312e-05	4
bin	2.15024e-05	2
bin	2.15736e-05	3
bin	2.16448e-05	1
bin	2.1716e-05	4
bin	2.17872e-05	2
bin	2.18584e-05	2
bin	2.19296e-05	2
bin	2.20008e-05	1
bin	2.2072e-05	2
bin	2.21432e-05	2
bin	2.22144e-05	3
bin	2.22856e-05	4
bin	2.23568e-05	5
bin	2.2428e-05	0
bin	2.24992e-05	4
bin	2.25704e-05	3
bin	2.26416e-05	2
bin	2.27128e-05	2
bin	2.2784e-05	1
bin	2.28552e-05	0
bin	2.29264e-05	1
bin	2.29976e-05	2
bin	2.30688e-05	1
bin	2.314e-05	1
bin	2.32112e-05	4
bin	2.32824e-05	3
bin	2.33536e-05	3
bin	2.34248e-05	4
bin	2.3496e-05	1
bin	2.35672e-05	2
bin	2.36384e-05	3
bin	2.37096e-05	3
bin	2.37808e-05	5
bin	2.3852e-05	4
bin	2.39232e-05	2
bin	2.39944e-05	2
bin	2.40656e-05	2
bin	2.41368e-05	5
bin	2.4208e-05	10
bin	2.42792e-05	6
bin	2.43504e-05	7
bin	2.44216e-05	6
bin	2.44928e-05	6
bin	2.4564e-05	19
bin	2.46352e-05	17
bin	2.47064e-05	15
bin	2.47776e-05	17
bin	2.48488e-05	23
bin	2.492e-05	15
bin	2.49912e-05	22
bin	2.50624e-05	9
bin	2.51336e-05	14
bin	2.52048e-05	12
bin	2.5276e-05	7
bin	2.53472e-05	8
bin	2.54184e-05	5
bin	2.54896e-05	8
bin	2.55608e-05	5
bin	2.5632e-05	5
bin	2.57032e-05	5
bin	2.57744e-05	5
bin	2.58456e-05	3
bin	2.59168e-05	4
bin	2.5988e-05	3
bin	2.60592e-05	4
bin	2.61304e-05	3
bin	2.62016e-05	0
bin	2.62728e-05	0
bin	2.6344e-05	0
bin	2.64152e-05	1
bin	2.64864e-05	1
bin	2.65576e-05	0
bin	2.66288e-05	0
bin	2.67e-05	2
bin	2.67712e-05	0
bin	2.68424e-05	1
bin	2.69136e-05	1
bin	2.69848e-05	3
bin	2.7056e-05	0
bin	2.71272e-05	2
bin	2.71984e-05	0
bin	2.72696e-05	1
bin	2.73408e-05	1
bin	2.7412e-05	3
bin	2.74832e-05	4
bin	2.75544e-05	5
bin	2.76256e-05	2
bin	2.76968e-05	2
bin	2.7768e-05	1
bin	2.78392e-05	2
bin	2.79104e-05	1
bin	2.79816e-05	2
bin	2.80528e-05	2
bin	2.8124e-05	2
bin	2.81952e-05	0
bin	2.82664e-05	1
bin	2.83376e-05	1
bin	2.84088e-05	4
bin	2.848e-05	1
bin	2.85512e-05	3
bin	2.86224e-05	2
bin	2.86936e-05	1
bin	2.87648e-05	3
bin	2.8836e-05	2
bin	2.89072e-05	2
bin	2.89784e-05	3
bin	2.90496e-05	2
bin	2.91208e-05	2
bin	2.9192e-05	2
bin	2.92632e-05	2
bin	2.93344e-05	1
bin	2.94056e-05	1
bin	2.94768e-05	2
bin	2.9548e-05	0
bin	2.96192e-05	2
bin	2.96904e-05	3
bin	2.97616e-05	1
bin	2.98328e-05	1
bin	2.9904e-05	1
bin	2.99752e-05	0
bin	3.00464e-05	1
bin	3.01176e-05	0
bin	3.01888e-05	2
bin	3.026e-05	0
bin	3.03312e-05	1
bin	3.04024e-05	0
bin	3.04736e-05	0
bin	3.05448e-05	1
bin	3.0616e-05	2
bin	3.06872e-05	1
bin	3.07584e-05	1
bin	3.08296e-05	0
bin	3.09008e-05	2
bin	3.0972e-05	1
bin	3.10432e-05	1
bin	3.11144e-05	0
bin	3.11856e-05	0
bin	3.12568e-05	0
bin	3.1328e-05	0
bin	3.13992e-05	1
bin	3.14704e-05	2
bin	3.15416e-05	1
bin	3.16128e-05	2
bin	3.1684e-05	1
bin	3.17552e-05	0
bin	3.18264e-05	1
bin	3.18976e-05	2
bin	3.19688e-05	0
bin	3.204e-05	2
bin	3.21112e-05	1
bin	3.21824e-05	1
bin	3.22536e-05	1
bin	3.23248e-05	2
bin	3.2396e-05	3
bin	3.24672e-05	2
bin	3.25384e-05	6
bin	3.26096e-05	4
bin	3.26808e-05	4
bin	3.2752e-05	5
bin	3.28232e-05	3
bin	3.28944e-05	7
bin	3.29656e-05	11
bin	3.30368e-05	10
bin	3.3108e-05	10
bin	3.31792e-05	7
bin	3.32504e-05	7
bin	3.33216e-05	1
bin	3.33928e-05	5
bin	3.3464e-05	2
bin	3.35352e-05	3
bin	3.36064e-05	3
bin	3.36776e-05	4
bin	3.37488e-05	2
bin	3.382e-05	0
bin	3.38912e-05	0
bin	3.39624e-05	0
bin	3.40336e-05	1
bin	3.41048e-05	2
bin	3.4176e-05	1
bin	3.42472e-05	1
bin	3.43184e-05	1
bin	3.43896e-05	1
bin	3.44608e-05	1
bin	3.4532e-05	1
bin	3.46032e-05	2
bin	3.46744e-05	0
bin	3.47456e-05	3
bin	3.48168e-05	2
bin	3.4888e-05	2
bin	3.49592e-05	2
bin	3.50304e-05	1
bin	3.51016e-05	1
bin	3.51728e-05	1
bin	3.5244e-05	1
bin	3.53152e-05	1
bin	3.53864e-05	1
bin	3.54576e-05	1
bin	3.55288e-05	1
bin	3.56e-05	293
statistic Torus3d_bub.timer 	"Life Times"
field count 6291456
field mean 2.5275880951009e-05
field stddev 1.1283203027808e-05
field sum 159.02209286451
field sqrsum 0.004820392842714
field min 3.77331349e-07
field max 0.001283098333332
bin	-INF	0
bin	0	6144
bin	8.544e-07	8192
bin	1.7088e-06	15639
bin	2.5632e-06	25345
bin	3.4176e-06	36142
bin	4.272e-06	44283
bin	5.1264e-06	52577
bin	5.9808e-06	58300
bin	6.8352e-06	66698
bin	7.6896e-06	76353
bin	8.544e-06	85125
bin	9.3984e-06	91888
bin	1.02528e-05	90339
bin	1.11072e-05	93109
bin	1.19616e-05	97890
bin	1.2816e-05	103815
bin	1.36704e-05	107395
bin	1.45248e-05	113566
bin	1.53792e-05	118289
bin	1.62336e-05	124759
bin	1.7088e-05	131267
bin	1.79424e-05	135885
bin	1.87968e-05	141363
bin	1.96512e-05	146823
bin	2.05056e-05	155850
bin	2.136e-05	164140
bin	2.22144e-05	173779
bin	2.30688e-05	184093
bin	2.39232e-05	195518
bin	2.47776e-05	207230
bin	2.5632e-05	219130
bin	2.64864e-05	227555
bin	2.73408e-05	228429
bin	2.81952e-05	227183
bin	2.90496e-05	220612
bin	2.9904e-05	212136
bin	3.07584e-05	201884
bin	3.16128e-05	192231
bin	3.24672e-05	181496
bin	3.33216e-05	169346
bin	3.4176e-05	156907
bin	3.50304e-05	144098
bin	3.58848e-05	130193
bin	3.67392e-05	117204
bin	3.75936e-05	103021
bin	3.8448e-05	90499
bin	3.93024e-05	78772
bin	4.01568e-05	67945
bin	4.10112e-05	57762
bin	4.18656e-05	46353
bin	4.272e-05	35197
bin	4.35744e-05	26423
bin	4.44288e-05	19438
bin	4.52832e-05	14505
bin	4.61376e-05	10712
bin	4.6992e-05	8100
bin	4.78464e-05	6105
bin	4.87008e-05	4671
bin	4.95552e-05	3721
bin	5.04096e-05	3055
bin	5.1264e-05	2577
bin	5.21184e-05	2093
bin	5.29728e-05	1792
bin	5.38272e-05	1465
bin	5.46816e-05	1312
bin	5.5536e-05	1141
bin	5.63904e-05	978
bin	5.72448e-05	802
bin	5.80992e-05	751
bin	5.89536e-05	700
bin	5.9808e-05	568
bin	6.06624e-05	489
bin	6.15168e-05	451
bin	6.23712e-05	435
bin	6.32256e-05	344
bin	6.408e-05	340
bin	6.49344e-05	323
bin	6.57888e-05	272
bin	6.66432e-05	288
bin	6.74976e-05	264
bin	6.8352e-05	254
bin	6.92064e-05	271
bin	7.00608e-05	294
bin	7.09152e-05	337
bin	7.17696e-05	389
bin	7.2624e-05	393
bin	7.34784e-05	437
bin	7.43328e-05	448
bin	7.51872e-05	459
bin	7.60416e-05	529
bin	7.6896e-05	491
bin	7.77504e-05	521
bin	7.86048e-05	559
bin	7.94592e-05	624
bin	8.03136e-05	647
bin	8.1168e-05	724
bin	8.20224e-05	787
bin	8.28768e-05	816
bin	8.37312e-05	842
bin	8.45856e-05	746
bin	8.544e-05	626
bin	8.62944e-05	494
bin	8.71488e-05	461
bin	8.80032e-05	351
bin	8.88576e-05	274
bin	8.9712e-05	195
bin	9.05664e-05	155
bin	9.14208e-05	123
bin	9.22752e-05	114
bin	9.31296e-05	91
bin	9.3984e-05	83
bin	9.48384e-05	71
bin	9.56928e-05	52
bin	9.65472e-05	48
bin	9.74016e-05	38
bin	9.8256e-05	34
bin	9.91104e-05	34
bin	9.99648e-05	39
bin	0.0001008192	28
bin	0.0001016736	25
bin	0.000102528	25
bin	0.0001033824	23
bin	0.0001042368	14
bin	0.0001050912	14
bin	0.0001059456	19
bin	0.0001068	18
bin	0.0001076544	19
bin	0.0001085088	13
bin	0.0001093632	13
bin	0.0001102176	17
bin	0.000111072	18
bin	0.0001119264	17
bin	0.0001127808	27
bin	0.0001136352	26
bin	0.0001144896	23
bin	0.000115344	30
bin	0.0001161984	37
bin	0.0001170528	35
bin	0.0001179072	39
bin	0.0001187616	48
bin	0.000119616	47
bin	0.0001204704	69
bin	0.0001213248	75
bin	0.0001221792	95
bin	0.0001230336	117
bin	0.000123888	152
bin	0.0001247424	152
bin	0.0001255968	131
bin	0.0001264512	137
bin	0.0001273056	132
bin	0.00012816	109
bin	0.0001290144	97
bin	0.0001298688	72
bin	0.0001307232	61
bin	0.0001315776	41
bin	0.000132432	29
bin	0.0001332864	19
bin	0.0001341408	21
bin	0.0001349952	19
bin	0.0001358496	25
bin	0.000136704	14
bin	0.0001375584	12
bin	0.0001384128	9
bin	0.0001392672	11
bin	0.0001401216	10
bin	0.000140976	8
bin	0.0001418304	7
bin	0.0001426848	4
bin	0.0001435392	7
bin	0.0001443936	6
bin	0.000145248	5
bin	0.0001461024	8
bin	0.0001469568	7
bin	0.0001478112	7
bin	0.0001486656	4
bin	0.00014952	9
bin	0.0001503744	1
bin	0.0001512288	2
bin	0.0001520832	2
bin	0.0001529376	5
bin	0.000153792	5
bin	0.0001546464	3
bin	0.0001555008	4
bin	0.0001563552	11
bin	0.0001572096	11
bin	0.000158064	16
bin	0.0001589184	14
bin	0.0001597728	7
bin	0.0001606272	17
bin	0.0001614816	19
bin	0.000162336	22
bin	0.0001631904	27
bin	0.0001640448	41
bin	0.0001648992	60
bin	0.0001657536	63
bin	0.000166608	63
bin	0.0001674624	59
bin	0.0001683168	52
bin	0.0001691712	42
bin	0.0001700256	33
bin	0.00017088	29
bin	0.0001717344	24
bin	0.0001725888	23
bin	0.0001734432	14
bin	0.0001742976	16
bin	0.000175152	12
bin	0.0001760064	6
bin	0.0001768608	4
bin	0.0001777152	7
bin	0.0001785696	4
bin	0.000179424	7
bin	0.0001802784	7
bin	0.0001811328	7
bin	0.0001819872	1
bin	0.0001828416	8
bin	0.000183696	5
bin	0.0001845504	2
bin	0.0001854048	1
bin	0.0001862592	1
bin	0.0001871136	0
bin	0.000187968	5
bin	0.0001888224	1
bin	0.0001896768	3
bin	0.0001905312	0
bin	0.0001913856	2
bin	0.00019224	1
bin	0.0001930944	4
bin	0.0001939488	2
bin	0.0001948032	0
bin	0.0001956576	3
bin	0.000196512	2
bin	0.0001973664	1
bin	0.0001982208	1
bin	0.0001990752	2
bin	0.0001999296	7
bin	0.000200784	5
bin	0.0002016384	5
bin	0.0002024928	2
bin	0.0002033472	8
bin	0.0002042016	13
bin	0.000205056	21
bin	0.0002059104	17
bin	0.0002067648	21
bin	0.0002076192	18
bin	0.0002084736	23
bin	0.000209328	21
bin	0.0002101824	20
bin	0.0002110368	12
bin	0.0002118912	11
bin	0.0002127456	6
bin	0.0002136	10
bin	0.0002144544	5
bin	0.0002153088	9
bin	0.0002161632	5
bin	0.0002170176	6
bin	0.000217872	3
bin	0.0002187264	3
bin	0.0002195808	4
bin	0.0002204352	3
bin	0.0002212896	3
bin	0.000222144	1
bin	0.0002229984	3
bin	0.0002238528	3
bin	0.0002247072	1
bin	0.0002255616	1
bin	0.000226416	1
bin	0.0002272704	0
bin	0.0002281248	1
bin	0.0002289792	0
bin	0.0002298336	0
bin	0.000230688	0
bin	0.0002315424	1
bin	0.0002323968	2
bin	0.0002332512	0
bin	0.0002341056	0
bin	0.00023496	0
bin	0.0002358144	0
bin	0.0002366688	0
bin	0.0002375232	0
bin	0.0002383776	3
bin	0.000239232	2
bin	0.0002400864	0
bin	0.0002409408	0
bin	0.0002417952	1
bin	0.0002426496	3
bin	0.000243504	4
bin	0.0002443584	2
bin	0.0002452128	6
bin	0.0002460672	10
bin	0.0002469216	15
bin	0.000247776	13
bin	0.0002486304	6
bin	0.0002494848	8
bin	0.0002503392	12
bin	0.0002511936	5
bin	0.000252048	3
bin	0.0002529024	0
bin	0.0002537568	3
bin	0.0002546112	3
bin	0.0002554656	2
bin	0.00025632	5
bin	0.0002571744	1
bin	0.0002580288	2
bin	0.0002588832	3
bin	0.0002597376	1
bin	0.000260592	0
bin	0.0002614464	1
bin	0.0002623008	2
bin	0.0002631552	1
bin	0.0002640096	1
bin	0.000264864	0
bin	0.0002657184	1
bin	0.0002665728	0
bin	0.0002674272	0
bin	0.0002682816	0
bin	0.000269136	0
bin	0.0002699904	1
bin	0.0002708448	0
bin	0.0002716992	0
bin	0.0002725536	0
bin	0.000273408	0
bin	0.0002742624	2
bin	0.0002751168	4
bin	0.0002759712	1
bin	0.0002768256	0
bin	0.00027768	2
bin	0.0002785344	1
bin	0.0002793888	4
bin	0.0002802432	1
bin	0.0002810976	0
bin	0.000281952	0
bin	0.0002828064	4
bin	0.0002836608	1
bin	0.0002845152	3
bin	0.0002853696	1
bin	0.000286224	4
bin	0.0002870784	5
bin	0.0002879328	3
bin	0.0002887872	8
bin	0.0002896416	11
bin	0.000290496	6
bin	0.0002913504	4
bin	0.0002922048	5
bin	0.0002930592	1
bin	0.0002939136	2
bin	0.000294768	1
bin	0.0002956224	1
bin	0.0002964768	1
bin	0.0002973312	1
bin	0.0002981856	0
bin	0.00029904	1
bin	0.0002998944	1
bin	0.0003007488	0
bin	0.0003016032	0
bin	0.0003024576	1
bin	0.000303312	0
bin	0.0003041664	0
bin	0.0003050208	0
bin	0.0003058752	0
bin	0.0003067296	0
bin	0.000307584	1
bin	0.0003084384	0
bin	0.0003092928	0
bin	0.0003101472	0
bin	0.0003110016	0
bin	0.000311856	0
bin	0.0003127104	0
bin	0.0003135648	0
bin	0.0003144192	0
bin	0.0003152736	1
bin	0.000316128	1
bin	0.0003169824	0
bin	0.0003178368	0
bin	0.0003186912	0
bin	0.0003195456	0
bin	0.0003204	0
bin	0.0003212544	0
bin	0.0003221088	1
bin	0.0003229632	0
bin	0.0003238176	0
bin	0.000324672	0
bin	0.0003255264	0
bin	0.0003263808	0
bin	0.0003272352	3
bin	0.0003280896	4
bin	0.000328944	7
bin	0.0003297984	0
bin	0.0003306528	1
bin	0.0003315072	2
bin	0.0003323616	3
bin	0.000333216	1
bin	0.0003340704	0
bin	0.0003349248	0
bin	0.0003357792	2
bin	0.0003366336	1
bin	0.000337488	2
bin	0.0003383424	1
bin	0.0003391968	2
bin	0.0003400512	0
bin	0.0003409056	0
bin	0.00034176	0
bin	0.0003426144	0
bin	0.0003434688	0
bin	0.0003443232	0
bin	0.0003451776	0
bin	0.000346032	0
bin	0.0003468864	0
bin	0.0003477408	0
bin	0.0003485952	0
bin	0.0003494496	0
bin	0.000350304	0
bin	0.0003511584	0
bin	0.0003520128	0
bin	0.0003528672	0
bin	0.0003537216	0
bin	0.000354576	0
bin	0.0003554304	0
bin	0.0003562848	1
bin	0.0003571392	0
bin	0.0003579936	0
bin	0.000358848	0
bin	0.0003597024	1
bin	0.0003605568	1
bin	0.0003614112	0
bin	0.0003622656	0
bin	0.00036312	0
bin	0.0003639744	0
bin	0.0003648288	0
bin	0.0003656832	0
bin	0.0003665376	0
bin	0.000367392	0
bin	0.0003682464	3
bin	0.0003691008	4
bin	0.0003699552	3
bin	0.0003708096	4
bin	0.000371664	2
bin	0.0003725184	3
bin	0.0003733728	1
bin	0.0003742272	2
bin	0.0003750816	2
bin	0.000375936	3
bin	0.0003767904	2
bin	0.0003776448	3
bin	0.0003784992	1
bin	0.0003793536	3
bin	0.000380208	0
bin	0.0003810624	0
bin	0.0003819168	1
bin	0.0003827712	0
bin	0.0003836256	0
bin	0.00038448	0
bin	0.0003853344	0
bin	0.0003861888	0
bin	0.0003870432	0
bin	0.0003878976	0
bin	0.000388752	0
bin	0.0003896064	0
bin	0.0003904608	0
bin	0.0003913152	0
bin	0.0003921696	0
bin	0.000393024	0
bin	0.0003938784	0
bin	0.0003947328	1
bin	0.0003955872	0
bin	0.0003964416	0
bin	0.000397296	0
bin	0.0003981504	1
bin	0.0003990048	0
bin	0.0003998592	0
bin	0.0004007136	1
bin	0.000401568	0
bin	0.0004024224	0
bin	0.0004032768	3
bin	0.0004041312	1
bin	0.0004049856	0
bin	0.00040584	0
bin	0.0004066944	0
bin	0.0004075488	1
bin	0.0004084032	0
bin	0.0004092576	1
bin	0.000410112	3
bin	0.0004109664	1
bin	0.0004118208	2
bin	0.0004126752	3
bin	0.0004135296	1
bin	0.000414384	1
bin	0.0004152384	1
bin	0.0004160928	1
bin	0.0004169472	0
bin	0.0004178016	0
bin	0.000418656	2
bin	0.0004195104	0
bin	0.0004203648	1
bin	0.0004212192	0
bin	0.0004220736	0
bin	0.000422928	0
bin	0.0004237824	2
bin	0.0004246368	0
bin	0.0004254912	0
bin	0.0004263456	0
bin	0.0004272	126
