version 2
run Transposition-75-20120710-18:57:06-28031
attr alg 3
attr buf 8
attr configname Transposition
attr datetime 20120710-18:57:06
attr delta 0.8
attr experiment Transposition
attr ext false
attr inifile altro.ini
attr iterationvars "$buf=8, $ext=false, $ofedge=2, $delta=0.8, $alg=3"
attr iterationvars2 "$buf=8, $ext=false, $ofedge=2, $delta=0.8, $alg=3, $repetition=0"
attr measurement "$buf=8, $ext=false, $ofedge=2, $delta=0.8, $alg=3"
attr network Torus3d_bub
attr ofedge 2
attr processid 28031
attr repetition 0
attr replication #0
attr resultdir altro-results
attr runnumber 75
attr seedset 75

scalar . 	alg 	3
scalar . 	buf 	8
scalar . 	delta 	0.8
scalar . 	ofedge 	2
scalar Torus3d_bub.timer 	#endTime 	0.004108824327372
scalar Torus3d_bub.timer 	#totalHops 	86146836
scalar Torus3d_bub.timer 	#totalPacks 	6291456
scalar Torus3d_bub.timer 	#totalDerouted 	1931447
scalar Torus3d_bub.timer 	#totalOutFlanked 	1171088
scalar Torus3d_bub.timer 	#totalCQRed 	760359
scalar Torus3d_bub.timer 	#LB 	0.000786432
scalar Torus3d_bub.timer 	#ratio 	0.19140073591392
statistic Torus3d_bub.timer 	"Hop Times"
field count 6193152
field mean 9.061339580008e-05
field stddev 6.6776608764251e-05
field sum 561.18253342605
field sqrsum 0.078466630499451
field min 3.78296296e-07
field max 0.000634023733323
bin	-INF	0
bin	0	0
bin	7.12e-08	0
bin	1.424e-07	0
bin	2.136e-07	0
bin	2.848e-07	0
bin	3.56e-07	245
bin	4.272e-07	967
bin	4.984e-07	1937
bin	5.696e-07	3302
bin	6.408e-07	4911
bin	7.12e-07	6404
bin	7.832e-07	8062
bin	8.544e-07	9511
bin	9.256e-07	10852
bin	9.968e-07	12094
bin	1.068e-06	13286
bin	1.1392e-06	14876
bin	1.2104e-06	15974
bin	1.2816e-06	18013
bin	1.3528e-06	19659
bin	1.424e-06	21965
bin	1.4952e-06	24482
bin	1.5664e-06	26648
bin	1.6376e-06	28742
bin	1.7088e-06	30011
bin	1.78e-06	30825
bin	1.8512e-06	31439
bin	1.9224e-06	31506
bin	1.9936e-06	31920
bin	2.0648e-06	31304
bin	2.136e-06	30875
bin	2.2072e-06	30080
bin	2.2784e-06	29329
bin	2.3496e-06	28393
bin	2.4208e-06	27463
bin	2.492e-06	26158
bin	2.5632e-06	25385
bin	2.6344e-06	24203
bin	2.7056e-06	23405
bin	2.7768e-06	22164
bin	2.848e-06	21221
bin	2.9192e-06	20273
bin	2.9904e-06	19305
bin	3.0616e-06	18629
bin	3.1328e-06	17505
bin	3.204e-06	16824
bin	3.2752e-06	15975
bin	3.3464e-06	15365
bin	3.4176e-06	14819
bin	3.4888e-06	14015
bin	3.56e-06	13275
bin	3.6312e-06	12447
bin	3.7024e-06	12101
bin	3.7736e-06	11726
bin	3.8448e-06	11241
bin	3.916e-06	10451
bin	3.9872e-06	10166
bin	4.0584e-06	9658
bin	4.1296e-06	9154
bin	4.2008e-06	8933
bin	4.272e-06	8664
bin	4.3432e-06	8308
bin	4.4144e-06	7997
bin	4.4856e-06	7696
bin	4.5568e-06	7455
bin	4.628e-06	7235
bin	4.6992e-06	7137
bin	4.7704e-06	6962
bin	4.8416e-06	6742
bin	4.9128e-06	6538
bin	4.984e-06	6447
bin	5.0552e-06	6379
bin	5.1264e-06	6280
bin	5.1976e-06	6054
bin	5.2688e-06	5955
bin	5.34e-06	5930
bin	5.4112e-06	5899
bin	5.4824e-06	5684
bin	5.5536e-06	5530
bin	5.6248e-06	5364
bin	5.696e-06	5283
bin	5.7672e-06	5336
bin	5.8384e-06	5061
bin	5.9096e-06	4911
bin	5.9808e-06	4829
bin	6.052e-06	4852
bin	6.1232e-06	4768
bin	6.1944e-06	4649
bin	6.2656e-06	4687
bin	6.3368e-06	4505
bin	6.408e-06	4518
bin	6.4792e-06	4404
bin	6.5504e-06	4209
bin	6.6216e-06	4138
bin	6.6928e-06	4137
bin	6.764e-06	3976
bin	6.8352e-06	3898
bin	6.9064e-06	3937
bin	6.9776e-06	3912
bin	7.0488e-06	3735
bin	7.12e-06	3639
bin	7.1912e-06	3655
bin	7.2624e-06	3538
bin	7.3336e-06	3358
bin	7.4048e-06	3361
bin	7.476e-06	3263
bin	7.5472e-06	3194
bin	7.6184e-06	3154
bin	7.6896e-06	3110
bin	7.7608e-06	3139
bin	7.832e-06	3023
bin	7.9032e-06	2999
bin	7.9744e-06	2973
bin	8.0456e-06	2973
bin	8.1168e-06	2915
bin	8.188e-06	2868
bin	8.2592e-06	2871
bin	8.3304e-06	2803
bin	8.4016e-06	2716
bin	8.4728e-06	2740
bin	8.544e-06	2703
bin	8.6152e-06	2654
bin	8.6864e-06	2649
bin	8.7576e-06	2547
bin	8.8288e-06	2536
bin	8.9e-06	2532
bin	8.9712e-06	2563
bin	9.0424e-06	2518
bin	9.1136e-06	2560
bin	9.1848e-06	2488
bin	9.256e-06	2474
bin	9.3272e-06	2461
bin	9.3984e-06	2490
bin	9.4696e-06	2521
bin	9.5408e-06	2399
bin	9.612e-06	2308
bin	9.6832e-06	2321
bin	9.7544e-06	2391
bin	9.8256e-06	2343
bin	9.8968e-06	2308
bin	9.968e-06	2290
bin	1.00392e-05	2221
bin	1.01104e-05	2256
bin	1.01816e-05	2123
bin	1.02528e-05	2210
bin	1.0324e-05	2154
bin	1.03952e-05	2152
bin	1.04664e-05	2201
bin	1.05376e-05	2185
bin	1.06088e-05	2147
bin	1.068e-05	2141
bin	1.07512e-05	2150
bin	1.08224e-05	2091
bin	1.08936e-05	2145
bin	1.09648e-05	2119
bin	1.1036e-05	2177
bin	1.11072e-05	2180
bin	1.11784e-05	2219
bin	1.12496e-05	2264
bin	1.13208e-05	2273
bin	1.1392e-05	2106
bin	1.14632e-05	2136
bin	1.15344e-05	2189
bin	1.16056e-05	2137
bin	1.16768e-05	2215
bin	1.1748e-05	2122
bin	1.18192e-05	2163
bin	1.18904e-05	2087
bin	1.19616e-05	2079
bin	1.20328e-05	2012
bin	1.2104e-05	2042
bin	1.21752e-05	2057
bin	1.22464e-05	2041
bin	1.23176e-05	2053
bin	1.23888e-05	2045
bin	1.246e-05	2087
bin	1.25312e-05	1986
bin	1.26024e-05	2060
bin	1.26736e-05	1987
bin	1.27448e-05	2025
bin	1.2816e-05	1917
bin	1.28872e-05	1986
bin	1.29584e-05	1916
bin	1.30296e-05	1911
bin	1.31008e-05	1931
bin	1.3172e-05	1910
bin	1.32432e-05	1918
bin	1.33144e-05	1792
bin	1.33856e-05	1838
bin	1.34568e-05	1771
bin	1.3528e-05	1774
bin	1.35992e-05	1815
bin	1.36704e-05	1802
bin	1.37416e-05	1740
bin	1.38128e-05	1664
bin	1.3884e-05	1742
bin	1.39552e-05	1798
bin	1.40264e-05	1682
bin	1.40976e-05	1638
bin	1.41688e-05	1693
bin	1.424e-05	1631
bin	1.43112e-05	1632
bin	1.43824e-05	1653
bin	1.44536e-05	1638
bin	1.45248e-05	1579
bin	1.4596e-05	1610
bin	1.46672e-05	1608
bin	1.47384e-05	1622
bin	1.48096e-05	1586
bin	1.48808e-05	1628
bin	1.4952e-05	1627
bin	1.50232e-05	1603
bin	1.50944e-05	1604
bin	1.51656e-05	1601
bin	1.52368e-05	1598
bin	1.5308e-05	1587
bin	1.53792e-05	1639
bin	1.54504e-05	1581
bin	1.55216e-05	1682
bin	1.55928e-05	1553
bin	1.5664e-05	1634
bin	1.57352e-05	1624
bin	1.58064e-05	1604
bin	1.58776e-05	1613
bin	1.59488e-05	1614
bin	1.602e-05	1562
bin	1.60912e-05	1556
bin	1.61624e-05	1554
bin	1.62336e-05	1493
bin	1.63048e-05	1481
bin	1.6376e-05	1518
bin	1.64472e-05	1450
bin	1.65184e-05	1474
bin	1.65896e-05	1469
bin	1.66608e-05	1448
bin	1.6732e-05	1462
bin	1.68032e-05	1462
bin	1.68744e-05	1374
bin	1.69456e-05	1436
bin	1.70168e-05	1380
bin	1.7088e-05	1411
bin	1.71592e-05	1432
bin	1.72304e-05	1461
bin	1.73016e-05	1499
bin	1.73728e-05	1463
bin	1.7444e-05	1396
bin	1.75152e-05	1440
bin	1.75864e-05	1440
bin	1.76576e-05	1377
bin	1.77288e-05	1351
bin	1.78e-05	1392
bin	1.78712e-05	1386
bin	1.79424e-05	1339
bin	1.80136e-05	1400
bin	1.80848e-05	1339
bin	1.8156e-05	1396
bin	1.82272e-05	1402
bin	1.82984e-05	1418
bin	1.83696e-05	1426
bin	1.84408e-05	1457
bin	1.8512e-05	1444
bin	1.85832e-05	1449
bin	1.86544e-05	1431
bin	1.87256e-05	1421
bin	1.87968e-05	1348
bin	1.8868e-05	1356
bin	1.89392e-05	1408
bin	1.90104e-05	1396
bin	1.90816e-05	1371
bin	1.91528e-05	1357
bin	1.9224e-05	1325
bin	1.92952e-05	1258
bin	1.93664e-05	1325
bin	1.94376e-05	1286
bin	1.95088e-05	1335
bin	1.958e-05	1316
bin	1.96512e-05	1239
bin	1.97224e-05	1235
bin	1.97936e-05	1191
bin	1.98648e-05	1229
bin	1.9936e-05	1163
bin	2.00072e-05	1196
bin	2.00784e-05	1190
bin	2.01496e-05	1174
bin	2.02208e-05	1170
bin	2.0292e-05	1167
bin	2.03632e-05	1119
bin	2.04344e-05	1179
bin	2.05056e-05	1155
bin	2.05768e-05	1211
bin	2.0648e-05	1173
bin	2.07192e-05	1241
bin	2.07904e-05	1231
bin	2.08616e-05	1199
bin	2.09328e-05	1176
bin	2.1004e-05	1179
bin	2.10752e-05	1144
bin	2.11464e-05	1180
bin	2.12176e-05	1196
bin	2.12888e-05	1278
bin	2.136e-05	1185
bin	2.14312e-05	1145
bin	2.15024e-05	1126
bin	2.15736e-05	1208
bin	2.16448e-05	1187
bin	2.1716e-05	1231
bin	2.17872e-05	1161
bin	2.18584e-05	1205
bin	2.19296e-05	1188
bin	2.20008e-05	1162
bin	2.2072e-05	1160
bin	2.21432e-05	1193
bin	2.22144e-05	1197
bin	2.22856e-05	1247
bin	2.23568e-05	1219
bin	2.2428e-05	1208
bin	2.24992e-05	1215
bin	2.25704e-05	1240
bin	2.26416e-05	1218
bin	2.27128e-05	1215
bin	2.2784e-05	1166
bin	2.28552e-05	1168
bin	2.29264e-05	1221
bin	2.29976e-05	1147
bin	2.30688e-05	1168
bin	2.314e-05	1147
bin	2.32112e-05	1158
bin	2.32824e-05	1144
bin	2.33536e-05	1119
bin	2.34248e-05	1182
bin	2.3496e-05	1149
bin	2.35672e-05	1162
bin	2.36384e-05	1174
bin	2.37096e-05	1190
bin	2.37808e-05	1184
bin	2.3852e-05	1229
bin	2.39232e-05	1179
bin	2.39944e-05	1189
bin	2.40656e-05	1156
bin	2.41368e-05	1190
bin	2.4208e-05	1076
bin	2.42792e-05	1144
bin	2.43504e-05	1102
bin	2.44216e-05	1118
bin	2.44928e-05	1165
bin	2.4564e-05	1159
bin	2.46352e-05	1166
bin	2.47064e-05	1121
bin	2.47776e-05	1091
bin	2.48488e-05	1119
bin	2.492e-05	1138
bin	2.49912e-05	1127
bin	2.50624e-05	1100
bin	2.51336e-05	1121
bin	2.52048e-05	1181
bin	2.5276e-05	1115
bin	2.53472e-05	1136
bin	2.54184e-05	1078
bin	2.54896e-05	1108
bin	2.55608e-05	1145
bin	2.5632e-05	1113
bin	2.57032e-05	1092
bin	2.57744e-05	1074
bin	2.58456e-05	996
bin	2.59168e-05	1051
bin	2.5988e-05	1060
bin	2.60592e-05	1055
bin	2.61304e-05	1130
bin	2.62016e-05	1130
bin	2.62728e-05	1108
bin	2.6344e-05	1063
bin	2.64152e-05	1017
bin	2.64864e-05	1042
bin	2.65576e-05	1019
bin	2.66288e-05	1082
bin	2.67e-05	1050
bin	2.67712e-05	1058
bin	2.68424e-05	1127
bin	2.69136e-05	1071
bin	2.69848e-05	1082
bin	2.7056e-05	1093
bin	2.71272e-05	1072
bin	2.71984e-05	1033
bin	2.72696e-05	1056
bin	2.73408e-05	1030
bin	2.7412e-05	1018
bin	2.74832e-05	1048
bin	2.75544e-05	1037
bin	2.76256e-05	1092
bin	2.76968e-05	1067
bin	2.7768e-05	1091
bin	2.78392e-05	1022
bin	2.79104e-05	1000
bin	2.79816e-05	978
bin	2.80528e-05	1024
bin	2.8124e-05	1041
bin	2.81952e-05	1067
bin	2.82664e-05	1031
bin	2.83376e-05	1092
bin	2.84088e-05	1014
bin	2.848e-05	1012
bin	2.85512e-05	1054
bin	2.86224e-05	1026
bin	2.86936e-05	987
bin	2.87648e-05	1034
bin	2.8836e-05	1071
bin	2.89072e-05	1043
bin	2.89784e-05	1076
bin	2.90496e-05	992
bin	2.91208e-05	1026
bin	2.9192e-05	969
bin	2.92632e-05	982
bin	2.93344e-05	1002
bin	2.94056e-05	984
bin	2.94768e-05	1013
bin	2.9548e-05	952
bin	2.96192e-05	985
bin	2.96904e-05	976
bin	2.97616e-05	974
bin	2.98328e-05	983
bin	2.9904e-05	976
bin	2.99752e-05	989
bin	3.00464e-05	1024
bin	3.01176e-05	958
bin	3.01888e-05	966
bin	3.026e-05	1012
bin	3.03312e-05	1032
bin	3.04024e-05	1067
bin	3.04736e-05	1093
bin	3.05448e-05	1016
bin	3.0616e-05	1109
bin	3.06872e-05	1123
bin	3.07584e-05	1134
bin	3.08296e-05	1092
bin	3.09008e-05	1109
bin	3.0972e-05	1133
bin	3.10432e-05	1136
bin	3.11144e-05	1103
bin	3.11856e-05	1063
bin	3.12568e-05	1106
bin	3.1328e-05	1059
bin	3.13992e-05	989
bin	3.14704e-05	1010
bin	3.15416e-05	996
bin	3.16128e-05	886
bin	3.1684e-05	909
bin	3.17552e-05	899
bin	3.18264e-05	877
bin	3.18976e-05	875
bin	3.19688e-05	862
bin	3.204e-05	874
bin	3.21112e-05	865
bin	3.21824e-05	891
bin	3.22536e-05	885
bin	3.23248e-05	941
bin	3.2396e-05	942
bin	3.24672e-05	934
bin	3.25384e-05	981
bin	3.26096e-05	931
bin	3.26808e-05	980
bin	3.2752e-05	995
bin	3.28232e-05	1027
bin	3.28944e-05	1052
bin	3.29656e-05	1031
bin	3.30368e-05	990
bin	3.3108e-05	988
bin	3.31792e-05	987
bin	3.32504e-05	987
bin	3.33216e-05	978
bin	3.33928e-05	947
bin	3.3464e-05	963
bin	3.35352e-05	978
bin	3.36064e-05	970
bin	3.36776e-05	945
bin	3.37488e-05	1031
bin	3.382e-05	974
bin	3.38912e-05	1032
bin	3.39624e-05	987
bin	3.40336e-05	1007
bin	3.41048e-05	969
bin	3.4176e-05	922
bin	3.42472e-05	972
bin	3.43184e-05	1018
bin	3.43896e-05	1003
bin	3.44608e-05	923
bin	3.4532e-05	967
bin	3.46032e-05	969
bin	3.46744e-05	967
bin	3.47456e-05	961
bin	3.48168e-05	955
bin	3.4888e-05	962
bin	3.49592e-05	976
bin	3.50304e-05	1024
bin	3.51016e-05	1004
bin	3.51728e-05	959
bin	3.5244e-05	973
bin	3.53152e-05	964
bin	3.53864e-05	956
bin	3.54576e-05	960
bin	3.55288e-05	959
bin	3.56e-05	4403551
statistic Torus3d_bub.timer 	"Life Times"
field count 6291456
field mean 0.0012765339529746
field stddev 0.00098704812532624
field sum 8031.2571976461
field sqrsum 16.381710622746
field min 1.64e-07
field max 0.003950337327372
bin	-INF	0
bin	0	6208
bin	8.544e-07	8192
bin	1.7088e-06	8763
bin	2.5632e-06	9717
bin	3.4176e-06	11078
bin	4.272e-06	12420
bin	5.1264e-06	14013
bin	5.9808e-06	15431
bin	6.8352e-06	17094
bin	7.6896e-06	18655
bin	8.544e-06	20463
bin	9.3984e-06	21980
bin	1.02528e-05	17343
bin	1.11072e-05	16256
bin	1.19616e-05	17317
bin	1.2816e-05	18420
bin	1.36704e-05	19331
bin	1.45248e-05	20012
bin	1.53792e-05	20895
bin	1.62336e-05	21742
bin	1.7088e-05	22226
bin	1.79424e-05	22532
bin	1.87968e-05	23129
bin	1.96512e-05	23789
bin	2.05056e-05	24314
bin	2.136e-05	25119
bin	2.22144e-05	25631
bin	2.30688e-05	26382
bin	2.39232e-05	27410
bin	2.47776e-05	27931
bin	2.5632e-05	29375
bin	2.64864e-05	30333
bin	2.73408e-05	31141
bin	2.81952e-05	31378
bin	2.90496e-05	31461
bin	2.9904e-05	31504
bin	3.07584e-05	31384
bin	3.16128e-05	30409
bin	3.24672e-05	28668
bin	3.33216e-05	27105
bin	3.4176e-05	25494
bin	3.50304e-05	23951
bin	3.58848e-05	21824
bin	3.67392e-05	20157
bin	3.75936e-05	18330
bin	3.8448e-05	16737
bin	3.93024e-05	15044
bin	4.01568e-05	13510
bin	4.10112e-05	12210
bin	4.18656e-05	11142
bin	4.272e-05	10091
bin	4.35744e-05	9313
bin	4.44288e-05	8847
bin	4.52832e-05	8289
bin	4.61376e-05	7847
bin	4.6992e-05	7473
bin	4.78464e-05	7261
bin	4.87008e-05	7006
bin	4.95552e-05	6884
bin	5.04096e-05	6837
bin	5.1264e-05	6919
bin	5.21184e-05	6711
bin	5.29728e-05	6732
bin	5.38272e-05	6629
bin	5.46816e-05	6517
bin	5.5536e-05	6690
bin	5.63904e-05	6583
bin	5.72448e-05	6403
bin	5.80992e-05	6520
bin	5.89536e-05	6408
bin	5.9808e-05	6714
bin	6.06624e-05	6579
bin	6.15168e-05	6635
bin	6.23712e-05	6712
bin	6.32256e-05	6573
bin	6.408e-05	6473
bin	6.49344e-05	6247
bin	6.57888e-05	6094
bin	6.66432e-05	5793
bin	6.74976e-05	5481
bin	6.8352e-05	5228
bin	6.92064e-05	4954
bin	7.00608e-05	4765
bin	7.09152e-05	4409
bin	7.17696e-05	4107
bin	7.2624e-05	3866
bin	7.34784e-05	3694
bin	7.43328e-05	3570
bin	7.51872e-05	3503
bin	7.60416e-05	3379
bin	7.6896e-05	3389
bin	7.77504e-05	3370
bin	7.86048e-05	3390
bin	7.94592e-05	3317
bin	8.03136e-05	3332
bin	8.1168e-05	3338
bin	8.20224e-05	3376
bin	8.28768e-05	3392
bin	8.37312e-05	3484
bin	8.45856e-05	3410
bin	8.544e-05	3491
bin	8.62944e-05	3537
bin	8.71488e-05	3405
bin	8.80032e-05	3460
bin	8.88576e-05	3548
bin	8.9712e-05	3565
bin	9.05664e-05	3432
bin	9.14208e-05	3454
bin	9.22752e-05	3552
bin	9.31296e-05	3542
bin	9.3984e-05	3543
bin	9.48384e-05	3481
bin	9.56928e-05	3314
bin	9.65472e-05	3243
bin	9.74016e-05	3282
bin	9.8256e-05	3083
bin	9.91104e-05	2941
bin	9.99648e-05	2885
bin	0.0001008192	2759
bin	0.0001016736	2589
bin	0.000102528	2524
bin	0.0001033824	2481
bin	0.0001042368	2405
bin	0.0001050912	2328
bin	0.0001059456	2292
bin	0.0001068	2275
bin	0.0001076544	2277
bin	0.0001085088	2193
bin	0.0001093632	2269
bin	0.0001102176	2135
bin	0.000111072	2265
bin	0.0001119264	2311
bin	0.0001127808	2261
bin	0.0001136352	2270
bin	0.0001144896	2282
bin	0.000115344	2193
bin	0.0001161984	2281
bin	0.0001170528	2370
bin	0.0001179072	2381
bin	0.0001187616	2362
bin	0.000119616	2374
bin	0.0001204704	2399
bin	0.0001213248	2493
bin	0.0001221792	2315
bin	0.0001230336	2362
bin	0.000123888	2389
bin	0.0001247424	2395
bin	0.0001255968	2348
bin	0.0001264512	2313
bin	0.0001273056	2387
bin	0.00012816	2169
bin	0.0001290144	2223
bin	0.0001298688	2168
bin	0.0001307232	2084
bin	0.0001315776	2088
bin	0.000132432	2067
bin	0.0001332864	1933
bin	0.0001341408	1932
bin	0.0001349952	1842
bin	0.0001358496	1790
bin	0.000136704	1759
bin	0.0001375584	1732
bin	0.0001384128	1725
bin	0.0001392672	1647
bin	0.0001401216	1613
bin	0.000140976	1699
bin	0.0001418304	1679
bin	0.0001426848	1641
bin	0.0001435392	1689
bin	0.0001443936	1688
bin	0.000145248	1749
bin	0.0001461024	1782
bin	0.0001469568	1783
bin	0.0001478112	1747
bin	0.0001486656	1838
bin	0.00014952	1819
bin	0.0001503744	1849
bin	0.0001512288	1869
bin	0.0001520832	1975
bin	0.0001529376	2007
bin	0.000153792	1953
bin	0.0001546464	1969
bin	0.0001555008	2058
bin	0.0001563552	2053
bin	0.0001572096	2015
bin	0.000158064	1969
bin	0.0001589184	1941
bin	0.0001597728	1829
bin	0.0001606272	1822
bin	0.0001614816	1712
bin	0.000162336	1656
bin	0.0001631904	1654
bin	0.0001640448	1617
bin	0.0001648992	1514
bin	0.0001657536	1499
bin	0.000166608	1456
bin	0.0001674624	1410
bin	0.0001683168	1439
bin	0.0001691712	1445
bin	0.0001700256	1468
bin	0.00017088	1404
bin	0.0001717344	1486
bin	0.0001725888	1481
bin	0.0001734432	1461
bin	0.0001742976	1513
bin	0.000175152	1495
bin	0.0001760064	1510
bin	0.0001768608	1463
bin	0.0001777152	1557
bin	0.0001785696	1528
bin	0.000179424	1568
bin	0.0001802784	1646
bin	0.0001811328	1596
bin	0.0001819872	1678
bin	0.0001828416	1604
bin	0.000183696	1641
bin	0.0001845504	1694
bin	0.0001854048	1651
bin	0.0001862592	1545
bin	0.0001871136	1583
bin	0.000187968	1490
bin	0.0001888224	1509
bin	0.0001896768	1512
bin	0.0001905312	1467
bin	0.0001913856	1555
bin	0.00019224	1443
bin	0.0001930944	1357
bin	0.0001939488	1365
bin	0.0001948032	1296
bin	0.0001956576	1248
bin	0.000196512	1304
bin	0.0001973664	1316
bin	0.0001982208	1241
bin	0.0001990752	1260
bin	0.0001999296	1263
bin	0.000200784	1236
bin	0.0002016384	1325
bin	0.0002024928	1262
bin	0.0002033472	1199
bin	0.0002042016	1295
bin	0.000205056	1309
bin	0.0002059104	1386
bin	0.0002067648	1353
bin	0.0002076192	1328
bin	0.0002084736	1328
bin	0.000209328	1424
bin	0.0002101824	1400
bin	0.0002110368	1342
bin	0.0002118912	1416
bin	0.0002127456	1397
bin	0.0002136	1418
bin	0.0002144544	1450
bin	0.0002153088	1480
bin	0.0002161632	1383
bin	0.0002170176	1415
bin	0.000217872	1432
bin	0.0002187264	1395
bin	0.0002195808	1429
bin	0.0002204352	1382
bin	0.0002212896	1333
bin	0.000222144	1323
bin	0.0002229984	1261
bin	0.0002238528	1250
bin	0.0002247072	1257
bin	0.0002255616	1249
bin	0.000226416	1240
bin	0.0002272704	1222
bin	0.0002281248	1198
bin	0.0002289792	1159
bin	0.0002298336	1154
bin	0.000230688	1109
bin	0.0002315424	1115
bin	0.0002323968	1124
bin	0.0002332512	1110
bin	0.0002341056	1141
bin	0.00023496	1161
bin	0.0002358144	1110
bin	0.0002366688	1130
bin	0.0002375232	1181
bin	0.0002383776	1185
bin	0.000239232	1176
bin	0.0002400864	1183
bin	0.0002409408	1144
bin	0.0002417952	1248
bin	0.0002426496	1198
bin	0.000243504	1237
bin	0.0002443584	1275
bin	0.0002452128	1238
bin	0.0002460672	1319
bin	0.0002469216	1333
bin	0.000247776	1254
bin	0.0002486304	1356
bin	0.0002494848	1337
bin	0.0002503392	1318
bin	0.0002511936	1303
bin	0.000252048	1301
bin	0.0002529024	1217
bin	0.0002537568	1172
bin	0.0002546112	1140
bin	0.0002554656	1120
bin	0.00025632	1101
bin	0.0002571744	1017
bin	0.0002580288	1073
bin	0.0002588832	1051
bin	0.0002597376	1049
bin	0.000260592	1055
bin	0.0002614464	1001
bin	0.0002623008	1019
bin	0.0002631552	1057
bin	0.0002640096	1077
bin	0.000264864	1061
bin	0.0002657184	1108
bin	0.0002665728	1126
bin	0.0002674272	1169
bin	0.0002682816	1154
bin	0.000269136	1195
bin	0.0002699904	1199
bin	0.0002708448	1195
bin	0.0002716992	1191
bin	0.0002725536	1183
bin	0.000273408	1182
bin	0.0002742624	1224
bin	0.0002751168	1202
bin	0.0002759712	1289
bin	0.0002768256	1321
bin	0.00027768	1289
bin	0.0002785344	1279
bin	0.0002793888	1253
bin	0.0002802432	1241
bin	0.0002810976	1259
bin	0.000281952	1319
bin	0.0002828064	1194
bin	0.0002836608	1186
bin	0.0002845152	1142
bin	0.0002853696	1129
bin	0.000286224	1138
bin	0.0002870784	1131
bin	0.0002879328	1047
bin	0.0002887872	1002
bin	0.0002896416	1039
bin	0.000290496	1005
bin	0.0002913504	969
bin	0.0002922048	1026
bin	0.0002930592	986
bin	0.0002939136	1050
bin	0.000294768	1127
bin	0.0002956224	1140
bin	0.0002964768	1115
bin	0.0002973312	1135
bin	0.0002981856	1115
bin	0.00029904	1138
bin	0.0002998944	1138
bin	0.0003007488	1102
bin	0.0003016032	1124
bin	0.0003024576	1106
bin	0.000303312	1124
bin	0.0003041664	1113
bin	0.0003050208	1098
bin	0.0003058752	1085
bin	0.0003067296	1134
bin	0.000307584	1155
bin	0.0003084384	1212
bin	0.0003092928	1183
bin	0.0003101472	1179
bin	0.0003110016	1123
bin	0.000311856	1103
bin	0.0003127104	1095
bin	0.0003135648	1050
bin	0.0003144192	1031
bin	0.0003152736	1007
bin	0.000316128	956
bin	0.0003169824	925
bin	0.0003178368	901
bin	0.0003186912	943
bin	0.0003195456	968
bin	0.0003204	947
bin	0.0003212544	924
bin	0.0003221088	858
bin	0.0003229632	921
bin	0.0003238176	924
bin	0.000324672	954
bin	0.0003255264	914
bin	0.0003263808	964
bin	0.0003272352	994
bin	0.0003280896	934
bin	0.000328944	923
bin	0.0003297984	943
bin	0.0003306528	932
bin	0.0003315072	994
bin	0.0003323616	1026
bin	0.000333216	993
bin	0.0003340704	1019
bin	0.0003349248	1004
bin	0.0003357792	943
bin	0.0003366336	1023
bin	0.000337488	1025
bin	0.0003383424	1042
bin	0.0003391968	1032
bin	0.0003400512	1059
bin	0.0003409056	1058
bin	0.00034176	1006
bin	0.0003426144	984
bin	0.0003434688	1009
bin	0.0003443232	934
bin	0.0003451776	946
bin	0.000346032	928
bin	0.0003468864	961
bin	0.0003477408	951
bin	0.0003485952	916
bin	0.0003494496	899
bin	0.000350304	892
bin	0.0003511584	918
bin	0.0003520128	935
bin	0.0003528672	896
bin	0.0003537216	923
bin	0.000354576	932
bin	0.0003554304	933
bin	0.0003562848	926
bin	0.0003571392	948
bin	0.0003579936	963
bin	0.000358848	935
bin	0.0003597024	957
bin	0.0003605568	930
bin	0.0003614112	936
bin	0.0003622656	966
bin	0.00036312	975
bin	0.0003639744	977
bin	0.0003648288	939
bin	0.0003656832	998
bin	0.0003665376	957
bin	0.000367392	971
bin	0.0003682464	1039
bin	0.0003691008	1038
bin	0.0003699552	1051
bin	0.0003708096	1063
bin	0.000371664	1055
bin	0.0003725184	1037
bin	0.0003733728	1037
bin	0.0003742272	1016
bin	0.0003750816	1004
bin	0.000375936	1012
bin	0.0003767904	993
bin	0.0003776448	996
bin	0.0003784992	949
bin	0.0003793536	969
bin	0.000380208	926
bin	0.0003810624	875
bin	0.0003819168	893
bin	0.0003827712	889
bin	0.0003836256	882
bin	0.00038448	804
bin	0.0003853344	909
bin	0.0003861888	909
bin	0.0003870432	900
bin	0.0003878976	852
bin	0.000388752	920
bin	0.0003896064	949
bin	0.0003904608	939
bin	0.0003913152	924
bin	0.0003921696	915
bin	0.000393024	981
bin	0.0003938784	955
bin	0.0003947328	939
bin	0.0003955872	995
bin	0.0003964416	975
bin	0.000397296	994
bin	0.0003981504	993
bin	0.0003990048	962
bin	0.0003998592	928
bin	0.0004007136	943
bin	0.000401568	909
bin	0.0004024224	889
bin	0.0004032768	986
bin	0.0004041312	967
bin	0.0004049856	1030
bin	0.00040584	946
bin	0.0004066944	907
bin	0.0004075488	940
bin	0.0004084032	892
bin	0.0004092576	905
bin	0.000410112	860
bin	0.0004109664	833
bin	0.0004118208	844
bin	0.0004126752	850
bin	0.0004135296	828
bin	0.000414384	825
bin	0.0004152384	872
bin	0.0004160928	829
bin	0.0004169472	810
bin	0.0004178016	846
bin	0.000418656	846
bin	0.0004195104	890
bin	0.0004203648	900
bin	0.0004212192	882
bin	0.0004220736	905
bin	0.000422928	902
bin	0.0004237824	946
bin	0.0004246368	954
bin	0.0004254912	973
bin	0.0004263456	941
bin	0.0004272	4399860
