version 2
run Transposition-68-20120710-15:25:51-25547
attr alg 0
attr buf 8
attr configname Transposition
attr datetime 20120710-15:25:51
attr delta 0.6
attr experiment Transposition
attr ext false
attr inifile altro.ini
attr iterationvars "$buf=8, $ext=false, $ofedge=2, $delta=0.6, $alg=0"
attr iterationvars2 "$buf=8, $ext=false, $ofedge=2, $delta=0.6, $alg=0, $repetition=0"
attr measurement "$buf=8, $ext=false, $ofedge=2, $delta=0.6, $alg=0"
attr network Torus3d_bub
attr ofedge 2
attr processid 25547
attr repetition 0
attr replication #0
attr resultdir altro-results
attr runnumber 68
attr seedset 68

scalar . 	alg 	0
scalar . 	buf 	8
scalar . 	delta 	0.6
scalar . 	ofedge 	2
scalar Torus3d_bub.timer 	#endTime 	0.002983963666345
scalar Torus3d_bub.timer 	#totalHops 	75497472
scalar Torus3d_bub.timer 	#totalPacks 	6291456
scalar Torus3d_bub.timer 	#totalDerouted 	0
scalar Torus3d_bub.timer 	#totalOutFlanked 	0
scalar Torus3d_bub.timer 	#totalCQRed 	0
scalar Torus3d_bub.timer 	#LB 	0.000786432
scalar Torus3d_bub.timer 	#ratio 	0.2635528069158
statistic Torus3d_bub.timer 	"Hop Times"
field count 6193152
field mean 3.822520981064e-05
field stddev 4.6309463754652e-05
field sum 236.73453458918
field sqrsum 0.022330851004704
field min 3.74222222e-07
field max 0.0005786316
bin	-INF	0
bin	0	0
bin	7.12e-08	0
bin	1.424e-07	0
bin	2.136e-07	0
bin	2.848e-07	0
bin	3.56e-07	327
bin	4.272e-07	3051
bin	4.984e-07	6405
bin	5.696e-07	10901
bin	6.408e-07	15231
bin	7.12e-07	19653
bin	7.832e-07	22491
bin	8.544e-07	24366
bin	9.256e-07	26093
bin	9.968e-07	27734
bin	1.068e-06	29519
bin	1.1392e-06	31071
bin	1.2104e-06	33290
bin	1.2816e-06	36528
bin	1.3528e-06	39892
bin	1.424e-06	43401
bin	1.4952e-06	47528
bin	1.5664e-06	50943
bin	1.6376e-06	53902
bin	1.7088e-06	56546
bin	1.78e-06	58926
bin	1.8512e-06	60436
bin	1.9224e-06	61445
bin	1.9936e-06	62664
bin	2.0648e-06	62881
bin	2.136e-06	62916
bin	2.2072e-06	62507
bin	2.2784e-06	61493
bin	2.3496e-06	60100
bin	2.4208e-06	58853
bin	2.492e-06	57016
bin	2.5632e-06	55689
bin	2.6344e-06	54289
bin	2.7056e-06	52045
bin	2.7768e-06	50842
bin	2.848e-06	48452
bin	2.9192e-06	46825
bin	2.9904e-06	45127
bin	3.0616e-06	42946
bin	3.1328e-06	42293
bin	3.204e-06	40380
bin	3.2752e-06	38521
bin	3.3464e-06	37141
bin	3.4176e-06	35473
bin	3.4888e-06	33986
bin	3.56e-06	32776
bin	3.6312e-06	31292
bin	3.7024e-06	30180
bin	3.7736e-06	28650
bin	3.8448e-06	27329
bin	3.916e-06	26654
bin	3.9872e-06	25367
bin	4.0584e-06	24365
bin	4.1296e-06	23668
bin	4.2008e-06	22959
bin	4.272e-06	22122
bin	4.3432e-06	21187
bin	4.4144e-06	20382
bin	4.4856e-06	19594
bin	4.5568e-06	19055
bin	4.628e-06	18229
bin	4.6992e-06	17705
bin	4.7704e-06	16939
bin	4.8416e-06	16262
bin	4.9128e-06	15942
bin	4.984e-06	15277
bin	5.0552e-06	14984
bin	5.1264e-06	14525
bin	5.1976e-06	14077
bin	5.2688e-06	13623
bin	5.34e-06	13486
bin	5.4112e-06	13329
bin	5.4824e-06	12886
bin	5.5536e-06	12507
bin	5.6248e-06	12152
bin	5.696e-06	11919
bin	5.7672e-06	11562
bin	5.8384e-06	11213
bin	5.9096e-06	10817
bin	5.9808e-06	10661
bin	6.052e-06	10369
bin	6.1232e-06	10250
bin	6.1944e-06	10044
bin	6.2656e-06	9964
bin	6.3368e-06	9693
bin	6.408e-06	9481
bin	6.4792e-06	9500
bin	6.5504e-06	9222
bin	6.6216e-06	8975
bin	6.6928e-06	8939
bin	6.764e-06	8958
bin	6.8352e-06	8652
bin	6.9064e-06	8686
bin	6.9776e-06	8404
bin	7.0488e-06	8307
bin	7.12e-06	8043
bin	7.1912e-06	7866
bin	7.2624e-06	7914
bin	7.3336e-06	7690
bin	7.4048e-06	7597
bin	7.476e-06	7571
bin	7.5472e-06	7326
bin	7.6184e-06	7384
bin	7.6896e-06	7128
bin	7.7608e-06	7173
bin	7.832e-06	7221
bin	7.9032e-06	6987
bin	7.9744e-06	7036
bin	8.0456e-06	6841
bin	8.1168e-06	6796
bin	8.188e-06	6728
bin	8.2592e-06	6620
bin	8.3304e-06	6599
bin	8.4016e-06	6645
bin	8.4728e-06	6386
bin	8.544e-06	6414
bin	8.6152e-06	6154
bin	8.6864e-06	6089
bin	8.7576e-06	6050
bin	8.8288e-06	5982
bin	8.9e-06	5741
bin	8.9712e-06	5861
bin	9.0424e-06	5747
bin	9.1136e-06	5623
bin	9.1848e-06	5590
bin	9.256e-06	5460
bin	9.3272e-06	5452
bin	9.3984e-06	5265
bin	9.4696e-06	5302
bin	9.5408e-06	5318
bin	9.612e-06	5191
bin	9.6832e-06	5064
bin	9.7544e-06	5165
bin	9.8256e-06	4955
bin	9.8968e-06	4992
bin	9.968e-06	4913
bin	1.00392e-05	4827
bin	1.01104e-05	4873
bin	1.01816e-05	4782
bin	1.02528e-05	4677
bin	1.0324e-05	4564
bin	1.03952e-05	4587
bin	1.04664e-05	4489
bin	1.05376e-05	4616
bin	1.06088e-05	4387
bin	1.068e-05	4261
bin	1.07512e-05	4329
bin	1.08224e-05	4376
bin	1.08936e-05	4283
bin	1.09648e-05	4230
bin	1.1036e-05	4228
bin	1.11072e-05	4126
bin	1.11784e-05	4172
bin	1.12496e-05	4256
bin	1.13208e-05	4157
bin	1.1392e-05	4083
bin	1.14632e-05	4006
bin	1.15344e-05	4007
bin	1.16056e-05	3963
bin	1.16768e-05	3956
bin	1.1748e-05	4031
bin	1.18192e-05	3891
bin	1.18904e-05	3972
bin	1.19616e-05	3957
bin	1.20328e-05	3818
bin	1.2104e-05	3871
bin	1.21752e-05	4005
bin	1.22464e-05	3893
bin	1.23176e-05	3847
bin	1.23888e-05	3943
bin	1.246e-05	3939
bin	1.25312e-05	3915
bin	1.26024e-05	3886
bin	1.26736e-05	3867
bin	1.27448e-05	3920
bin	1.2816e-05	3913
bin	1.28872e-05	3834
bin	1.29584e-05	3942
bin	1.30296e-05	3690
bin	1.31008e-05	3745
bin	1.3172e-05	3693
bin	1.32432e-05	3604
bin	1.33144e-05	3494
bin	1.33856e-05	3681
bin	1.34568e-05	3520
bin	1.3528e-05	3557
bin	1.35992e-05	3523
bin	1.36704e-05	3453
bin	1.37416e-05	3455
bin	1.38128e-05	3397
bin	1.3884e-05	3340
bin	1.39552e-05	3330
bin	1.40264e-05	3365
bin	1.40976e-05	3327
bin	1.41688e-05	3277
bin	1.424e-05	3353
bin	1.43112e-05	3378
bin	1.43824e-05	3267
bin	1.44536e-05	3373
bin	1.45248e-05	3325
bin	1.4596e-05	3315
bin	1.46672e-05	3359
bin	1.47384e-05	3217
bin	1.48096e-05	3282
bin	1.48808e-05	3150
bin	1.4952e-05	3196
bin	1.50232e-05	3222
bin	1.50944e-05	3321
bin	1.51656e-05	3245
bin	1.52368e-05	3196
bin	1.5308e-05	3244
bin	1.53792e-05	3242
bin	1.54504e-05	3226
bin	1.55216e-05	3118
bin	1.55928e-05	3089
bin	1.5664e-05	3067
bin	1.57352e-05	3150
bin	1.58064e-05	3039
bin	1.58776e-05	3103
bin	1.59488e-05	3086
bin	1.602e-05	3039
bin	1.60912e-05	3042
bin	1.61624e-05	3073
bin	1.62336e-05	2930
bin	1.63048e-05	3025
bin	1.6376e-05	3010
bin	1.64472e-05	3089
bin	1.65184e-05	3041
bin	1.65896e-05	2979
bin	1.66608e-05	3038
bin	1.6732e-05	2990
bin	1.68032e-05	2892
bin	1.68744e-05	3043
bin	1.69456e-05	2904
bin	1.70168e-05	2860
bin	1.7088e-05	2766
bin	1.71592e-05	2823
bin	1.72304e-05	2814
bin	1.73016e-05	2760
bin	1.73728e-05	2889
bin	1.7444e-05	2820
bin	1.75152e-05	2791
bin	1.75864e-05	2740
bin	1.76576e-05	2681
bin	1.77288e-05	2717
bin	1.78e-05	2644
bin	1.78712e-05	2573
bin	1.79424e-05	2584
bin	1.80136e-05	2639
bin	1.80848e-05	2576
bin	1.8156e-05	2574
bin	1.82272e-05	2556
bin	1.82984e-05	2478
bin	1.83696e-05	2539
bin	1.84408e-05	2563
bin	1.8512e-05	2476
bin	1.85832e-05	2489
bin	1.86544e-05	2483
bin	1.87256e-05	2524
bin	1.87968e-05	2566
bin	1.8868e-05	2627
bin	1.89392e-05	2520
bin	1.90104e-05	2480
bin	1.90816e-05	2514
bin	1.91528e-05	2511
bin	1.9224e-05	2543
bin	1.92952e-05	2525
bin	1.93664e-05	2630
bin	1.94376e-05	2519
bin	1.95088e-05	2486
bin	1.958e-05	2460
bin	1.96512e-05	2433
bin	1.97224e-05	2504
bin	1.97936e-05	2505
bin	1.98648e-05	2460
bin	1.9936e-05	2527
bin	2.00072e-05	2414
bin	2.00784e-05	2446
bin	2.01496e-05	2424
bin	2.02208e-05	2463
bin	2.0292e-05	2547
bin	2.03632e-05	2461
bin	2.04344e-05	2461
bin	2.05056e-05	2510
bin	2.05768e-05	2510
bin	2.0648e-05	2552
bin	2.07192e-05	2568
bin	2.07904e-05	2644
bin	2.08616e-05	2607
bin	2.09328e-05	2580
bin	2.1004e-05	2543
bin	2.10752e-05	2517
bin	2.11464e-05	2419
bin	2.12176e-05	2500
bin	2.12888e-05	2375
bin	2.136e-05	2384
bin	2.14312e-05	2301
bin	2.15024e-05	2349
bin	2.15736e-05	2350
bin	2.16448e-05	2321
bin	2.1716e-05	2410
bin	2.17872e-05	2276
bin	2.18584e-05	2283
bin	2.19296e-05	2336
bin	2.20008e-05	2345
bin	2.2072e-05	2239
bin	2.21432e-05	2369
bin	2.22144e-05	2375
bin	2.22856e-05	2296
bin	2.23568e-05	2325
bin	2.2428e-05	2384
bin	2.24992e-05	2281
bin	2.25704e-05	2201
bin	2.26416e-05	2268
bin	2.27128e-05	2298
bin	2.2784e-05	2282
bin	2.28552e-05	2247
bin	2.29264e-05	2319
bin	2.29976e-05	2253
bin	2.30688e-05	2284
bin	2.314e-05	2254
bin	2.32112e-05	2210
bin	2.32824e-05	2278
bin	2.33536e-05	2175
bin	2.34248e-05	2268
bin	2.3496e-05	2315
bin	2.35672e-05	2283
bin	2.36384e-05	2286
bin	2.37096e-05	2239
bin	2.37808e-05	2275
bin	2.3852e-05	2214
bin	2.39232e-05	2280
bin	2.39944e-05	2276
bin	2.40656e-05	2247
bin	2.41368e-05	2293
bin	2.4208e-05	2204
bin	2.42792e-05	2282
bin	2.43504e-05	2215
bin	2.44216e-05	2268
bin	2.44928e-05	2215
bin	2.4564e-05	2200
bin	2.46352e-05	2216
bin	2.47064e-05	2234
bin	2.47776e-05	2251
bin	2.48488e-05	2226
bin	2.492e-05	2139
bin	2.49912e-05	2267
bin	2.50624e-05	2247
bin	2.51336e-05	2270
bin	2.52048e-05	2266
bin	2.5276e-05	2231
bin	2.53472e-05	2222
bin	2.54184e-05	2272
bin	2.54896e-05	2218
bin	2.55608e-05	2113
bin	2.5632e-05	2133
bin	2.57032e-05	2133
bin	2.57744e-05	2156
bin	2.58456e-05	2189
bin	2.59168e-05	2056
bin	2.5988e-05	2066
bin	2.60592e-05	2156
bin	2.61304e-05	2105
bin	2.62016e-05	2040
bin	2.62728e-05	1991
bin	2.6344e-05	1969
bin	2.64152e-05	2008
bin	2.64864e-05	2084
bin	2.65576e-05	2050
bin	2.66288e-05	2003
bin	2.67e-05	1942
bin	2.67712e-05	1971
bin	2.68424e-05	2028
bin	2.69136e-05	1981
bin	2.69848e-05	1976
bin	2.7056e-05	1885
bin	2.71272e-05	1879
bin	2.71984e-05	1991
bin	2.72696e-05	1977
bin	2.73408e-05	1958
bin	2.7412e-05	1997
bin	2.74832e-05	1928
bin	2.75544e-05	1929
bin	2.76256e-05	1962
bin	2.76968e-05	1972
bin	2.7768e-05	1976
bin	2.78392e-05	1985
bin	2.79104e-05	2020
bin	2.79816e-05	1988
bin	2.80528e-05	1967
bin	2.8124e-05	2026
bin	2.81952e-05	1927
bin	2.82664e-05	2003
bin	2.83376e-05	2060
bin	2.84088e-05	2074
bin	2.848e-05	2028
bin	2.85512e-05	1961
bin	2.86224e-05	2025
bin	2.86936e-05	1938
bin	2.87648e-05	1980
bin	2.8836e-05	1990
bin	2.89072e-05	1910
bin	2.89784e-05	1990
bin	2.90496e-05	2028
bin	2.91208e-05	1937
bin	2.9192e-05	2000
bin	2.92632e-05	1969
bin	2.93344e-05	2032
bin	2.94056e-05	1913
bin	2.94768e-05	1928
bin	2.9548e-05	1948
bin	2.96192e-05	1965
bin	2.96904e-05	1959
bin	2.97616e-05	2015
bin	2.98328e-05	1981
bin	2.9904e-05	1953
bin	2.99752e-05	1965
bin	3.00464e-05	1992
bin	3.01176e-05	1991
bin	3.01888e-05	1980
bin	3.026e-05	1952
bin	3.03312e-05	1946
bin	3.04024e-05	1906
bin	3.04736e-05	1945
bin	3.05448e-05	1966
bin	3.0616e-05	1936
bin	3.06872e-05	1931
bin	3.07584e-05	1863
bin	3.08296e-05	1938
bin	3.09008e-05	1969
bin	3.0972e-05	1926
bin	3.10432e-05	2010
bin	3.11144e-05	1971
bin	3.11856e-05	1914
bin	3.12568e-05	1894
bin	3.1328e-05	1960
bin	3.13992e-05	1942
bin	3.14704e-05	1863
bin	3.15416e-05	1891
bin	3.16128e-05	1958
bin	3.1684e-05	1923
bin	3.17552e-05	1956
bin	3.18264e-05	1918
bin	3.18976e-05	2004
bin	3.19688e-05	1926
bin	3.204e-05	1926
bin	3.21112e-05	1885
bin	3.21824e-05	1849
bin	3.22536e-05	1868
bin	3.23248e-05	1964
bin	3.2396e-05	1913
bin	3.24672e-05	1979
bin	3.25384e-05	1950
bin	3.26096e-05	1915
bin	3.26808e-05	1991
bin	3.2752e-05	1948
bin	3.28232e-05	1948
bin	3.28944e-05	1973
bin	3.29656e-05	1972
bin	3.30368e-05	1999
bin	3.3108e-05	1994
bin	3.31792e-05	2087
bin	3.32504e-05	1962
bin	3.33216e-05	1954
bin	3.33928e-05	1973
bin	3.3464e-05	1920
bin	3.35352e-05	1908
bin	3.36064e-05	1937
bin	3.36776e-05	1889
bin	3.37488e-05	1970
bin	3.382e-05	1815
bin	3.38912e-05	1965
bin	3.39624e-05	1931
bin	3.40336e-05	1825
bin	3.41048e-05	1906
bin	3.4176e-05	1884
bin	3.42472e-05	1894
bin	3.43184e-05	1781
bin	3.43896e-05	1803
bin	3.44608e-05	1844
bin	3.4532e-05	1835
bin	3.46032e-05	1767
bin	3.46744e-05	1832
bin	3.47456e-05	1822
bin	3.48168e-05	1911
bin	3.4888e-05	1952
bin	3.49592e-05	1874
bin	3.50304e-05	1891
bin	3.51016e-05	1875
bin	3.51728e-05	1872
bin	3.5244e-05	1864
bin	3.53152e-05	1842
bin	3.53864e-05	1870
bin	3.54576e-05	1851
bin	3.55288e-05	1829
bin	3.56e-05	2344777
statistic Torus3d_bub.timer 	"Life Times"
field count 6291456
field mean 0.00046215779044876
field stddev 0.00056551485350385
field sum 2907.6454036656
field sqrsum 3.3558426359893
field min 1.64e-07
field max 0.00289535
bin	-INF	0
bin	0	6208
bin	8.544e-07	8192
bin	1.7088e-06	9799
bin	2.5632e-06	12178
bin	3.4176e-06	14767
bin	4.272e-06	17415
bin	5.1264e-06	20439
bin	5.9808e-06	23109
bin	6.8352e-06	26531
bin	7.6896e-06	29789
bin	8.544e-06	32894
bin	9.3984e-06	35811
bin	1.02528e-05	32180
bin	1.11072e-05	32450
bin	1.19616e-05	34119
bin	1.2816e-05	36118
bin	1.36704e-05	37831
bin	1.45248e-05	38953
bin	1.53792e-05	41103
bin	1.62336e-05	42338
bin	1.7088e-05	43605
bin	1.79424e-05	44813
bin	1.87968e-05	46604
bin	1.96512e-05	47717
bin	2.05056e-05	49762
bin	2.136e-05	51172
bin	2.22144e-05	52807
bin	2.30688e-05	55039
bin	2.39232e-05	56989
bin	2.47776e-05	58249
bin	2.5632e-05	59781
bin	2.64864e-05	61383
bin	2.73408e-05	61562
bin	2.81952e-05	61345
bin	2.90496e-05	61348
bin	2.9904e-05	60497
bin	3.07584e-05	59711
bin	3.16128e-05	59008
bin	3.24672e-05	58185
bin	3.33216e-05	56592
bin	3.4176e-05	55369
bin	3.50304e-05	54363
bin	3.58848e-05	52502
bin	3.67392e-05	51329
bin	3.75936e-05	50123
bin	3.8448e-05	49080
bin	3.93024e-05	47953
bin	4.01568e-05	46584
bin	4.10112e-05	45950
bin	4.18656e-05	43491
bin	4.272e-05	40445
bin	4.35744e-05	37449
bin	4.44288e-05	34803
bin	4.52832e-05	32190
bin	4.61376e-05	29580
bin	4.6992e-05	27303
bin	4.78464e-05	24747
bin	4.87008e-05	22585
bin	4.95552e-05	20610
bin	5.04096e-05	19103
bin	5.1264e-05	17375
bin	5.21184e-05	15964
bin	5.29728e-05	14779
bin	5.38272e-05	14258
bin	5.46816e-05	13275
bin	5.5536e-05	12883
bin	5.63904e-05	12008
bin	5.72448e-05	11604
bin	5.80992e-05	11154
bin	5.89536e-05	10807
bin	5.9808e-05	10523
bin	6.06624e-05	10332
bin	6.15168e-05	10094
bin	6.23712e-05	9908
bin	6.32256e-05	9730
bin	6.408e-05	9683
bin	6.49344e-05	9534
bin	6.57888e-05	9401
bin	6.66432e-05	9232
bin	6.74976e-05	9421
bin	6.8352e-05	9043
bin	6.92064e-05	8984
bin	7.00608e-05	9198
bin	7.09152e-05	9155
bin	7.17696e-05	8993
bin	7.2624e-05	8809
bin	7.34784e-05	8860
bin	7.43328e-05	9003
bin	7.51872e-05	9014
bin	7.60416e-05	8980
bin	7.6896e-05	9036
bin	7.77504e-05	9214
bin	7.86048e-05	9179
bin	7.94592e-05	9017
bin	8.03136e-05	9329
bin	8.1168e-05	9549
bin	8.20224e-05	9502
bin	8.28768e-05	9474
bin	8.37312e-05	9575
bin	8.45856e-05	9314
bin	8.544e-05	9179
bin	8.62944e-05	8952
bin	8.71488e-05	8590
bin	8.80032e-05	8349
bin	8.88576e-05	7903
bin	8.9712e-05	7656
bin	9.05664e-05	7296
bin	9.14208e-05	6921
bin	9.22752e-05	6687
bin	9.31296e-05	6420
bin	9.3984e-05	6265
bin	9.48384e-05	6086
bin	9.56928e-05	5801
bin	9.65472e-05	5813
bin	9.74016e-05	5667
bin	9.8256e-05	5544
bin	9.91104e-05	5627
bin	9.99648e-05	5536
bin	0.0001008192	5348
bin	0.0001016736	5338
bin	0.000102528	5200
bin	0.0001033824	5209
bin	0.0001042368	5316
bin	0.0001050912	5208
bin	0.0001059456	5184
bin	0.0001068	5293
bin	0.0001076544	5103
bin	0.0001085088	5231
bin	0.0001093632	5229
bin	0.0001102176	5162
bin	0.000111072	5138
bin	0.0001119264	5042
bin	0.0001127808	5138
bin	0.0001136352	5116
bin	0.0001144896	5065
bin	0.000115344	5014
bin	0.0001161984	5112
bin	0.0001170528	5200
bin	0.0001179072	5167
bin	0.0001187616	5198
bin	0.000119616	5267
bin	0.0001204704	5244
bin	0.0001213248	5419
bin	0.0001221792	5238
bin	0.0001230336	5420
bin	0.000123888	5328
bin	0.0001247424	5179
bin	0.0001255968	5308
bin	0.0001264512	5224
bin	0.0001273056	5087
bin	0.00012816	4989
bin	0.0001290144	4923
bin	0.0001298688	4690
bin	0.0001307232	4657
bin	0.0001315776	4395
bin	0.000132432	4222
bin	0.0001332864	4159
bin	0.0001341408	4092
bin	0.0001349952	3953
bin	0.0001358496	3919
bin	0.000136704	3795
bin	0.0001375584	3776
bin	0.0001384128	3822
bin	0.0001392672	3675
bin	0.0001401216	3665
bin	0.000140976	3624
bin	0.0001418304	3647
bin	0.0001426848	3478
bin	0.0001435392	3636
bin	0.0001443936	3619
bin	0.000145248	3690
bin	0.0001461024	3564
bin	0.0001469568	3649
bin	0.0001478112	3593
bin	0.0001486656	3512
bin	0.00014952	3483
bin	0.0001503744	3521
bin	0.0001512288	3604
bin	0.0001520832	3647
bin	0.0001529376	3682
bin	0.000153792	3563
bin	0.0001546464	3647
bin	0.0001555008	3679
bin	0.0001563552	3538
bin	0.0001572096	3748
bin	0.000158064	3660
bin	0.0001589184	3724
bin	0.0001597728	3615
bin	0.0001606272	3627
bin	0.0001614816	3822
bin	0.000162336	3734
bin	0.0001631904	3757
bin	0.0001640448	3752
bin	0.0001648992	3881
bin	0.0001657536	3893
bin	0.000166608	3770
bin	0.0001674624	3688
bin	0.0001683168	3593
bin	0.0001691712	3592
bin	0.0001700256	3397
bin	0.00017088	3527
bin	0.0001717344	3342
bin	0.0001725888	3267
bin	0.0001734432	3283
bin	0.0001742976	3117
bin	0.000175152	3100
bin	0.0001760064	2989
bin	0.0001768608	3006
bin	0.0001777152	2959
bin	0.0001785696	2951
bin	0.000179424	2774
bin	0.0001802784	2932
bin	0.0001811328	2938
bin	0.0001819872	2798
bin	0.0001828416	2840
bin	0.000183696	2797
bin	0.0001845504	2837
bin	0.0001854048	2765
bin	0.0001862592	2775
bin	0.0001871136	2822
bin	0.000187968	2826
bin	0.0001888224	2966
bin	0.0001896768	2913
bin	0.0001905312	2921
bin	0.0001913856	2979
bin	0.00019224	2936
bin	0.0001930944	3010
bin	0.0001939488	2896
bin	0.0001948032	2920
bin	0.0001956576	2984
bin	0.000196512	3001
bin	0.0001973664	2917
bin	0.0001982208	3049
bin	0.0001990752	3009
bin	0.0001999296	3037
bin	0.000200784	3132
bin	0.0002016384	3217
bin	0.0002024928	3086
bin	0.0002033472	3060
bin	0.0002042016	2959
bin	0.000205056	3112
bin	0.0002059104	3142
bin	0.0002067648	3221
bin	0.0002076192	3237
bin	0.0002084736	3198
bin	0.000209328	3004
bin	0.0002101824	2976
bin	0.0002110368	2955
bin	0.0002118912	2796
bin	0.0002127456	2826
bin	0.0002136	2825
bin	0.0002144544	2721
bin	0.0002153088	2677
bin	0.0002161632	2640
bin	0.0002170176	2612
bin	0.000217872	2551
bin	0.0002187264	2470
bin	0.0002195808	2422
bin	0.0002204352	2482
bin	0.0002212896	2445
bin	0.000222144	2415
bin	0.0002229984	2401
bin	0.0002238528	2446
bin	0.0002247072	2365
bin	0.0002255616	2390
bin	0.000226416	2385
bin	0.0002272704	2456
bin	0.0002281248	2485
bin	0.0002289792	2566
bin	0.0002298336	2531
bin	0.000230688	2561
bin	0.0002315424	2508
bin	0.0002323968	2515
bin	0.0002332512	2422
bin	0.0002341056	2476
bin	0.00023496	2468
bin	0.0002358144	2553
bin	0.0002366688	2478
bin	0.0002375232	2549
bin	0.0002383776	2527
bin	0.000239232	2606
bin	0.0002400864	2494
bin	0.0002409408	2537
bin	0.0002417952	2592
bin	0.0002426496	2583
bin	0.000243504	2597
bin	0.0002443584	2576
bin	0.0002452128	2743
bin	0.0002460672	2685
bin	0.0002469216	2700
bin	0.000247776	2730
bin	0.0002486304	2669
bin	0.0002494848	2625
bin	0.0002503392	2653
bin	0.0002511936	2587
bin	0.000252048	2606
bin	0.0002529024	2566
bin	0.0002537568	2592
bin	0.0002546112	2420
bin	0.0002554656	2351
bin	0.00025632	2283
bin	0.0002571744	2283
bin	0.0002580288	2285
bin	0.0002588832	2221
bin	0.0002597376	2150
bin	0.000260592	2158
bin	0.0002614464	2149
bin	0.0002623008	2100
bin	0.0002631552	2196
bin	0.0002640096	2250
bin	0.000264864	2219
bin	0.0002657184	2173
bin	0.0002665728	2151
bin	0.0002674272	2124
bin	0.0002682816	2075
bin	0.000269136	2128
bin	0.0002699904	2067
bin	0.0002708448	2076
bin	0.0002716992	2237
bin	0.0002725536	2127
bin	0.000273408	2138
bin	0.0002742624	2146
bin	0.0002751168	2158
bin	0.0002759712	2183
bin	0.0002768256	2196
bin	0.00027768	2311
bin	0.0002785344	2207
bin	0.0002793888	2283
bin	0.0002802432	2281
bin	0.0002810976	2285
bin	0.000281952	2289
bin	0.0002828064	2282
bin	0.0002836608	2350
bin	0.0002845152	2344
bin	0.0002853696	2267
bin	0.000286224	2367
bin	0.0002870784	2326
bin	0.0002879328	2361
bin	0.0002887872	2443
bin	0.0002896416	2328
bin	0.000290496	2340
bin	0.0002913504	2397
bin	0.0002922048	2364
bin	0.0002930592	2351
bin	0.0002939136	2231
bin	0.000294768	2254
bin	0.0002956224	2206
bin	0.0002964768	2195
bin	0.0002973312	2094
bin	0.0002981856	2063
bin	0.00029904	2028
bin	0.0002998944	1973
bin	0.0003007488	1944
bin	0.0003016032	1989
bin	0.0003024576	1981
bin	0.000303312	1975
bin	0.0003041664	1973
bin	0.0003050208	1909
bin	0.0003058752	2004
bin	0.0003067296	1933
bin	0.000307584	1985
bin	0.0003084384	1982
bin	0.0003092928	1983
bin	0.0003101472	2055
bin	0.0003110016	1982
bin	0.000311856	1961
bin	0.0003127104	2047
bin	0.0003135648	2034
bin	0.0003144192	2100
bin	0.0003152736	2068
bin	0.000316128	2062
bin	0.0003169824	2077
bin	0.0003178368	2126
bin	0.0003186912	2053
bin	0.0003195456	2036
bin	0.0003204	2050
bin	0.0003212544	2076
bin	0.0003221088	2194
bin	0.0003229632	2135
bin	0.0003238176	2108
bin	0.000324672	2187
bin	0.0003255264	2164
bin	0.0003263808	2168
bin	0.0003272352	2231
bin	0.0003280896	2193
bin	0.000328944	2263
bin	0.0003297984	2174
bin	0.0003306528	2240
bin	0.0003315072	2155
bin	0.0003323616	2198
bin	0.000333216	2204
bin	0.0003340704	2256
bin	0.0003349248	2169
bin	0.0003357792	2156
bin	0.0003366336	2060
bin	0.000337488	2061
bin	0.0003383424	2009
bin	0.0003391968	2023
bin	0.0003400512	1940
bin	0.0003409056	1959
bin	0.00034176	1882
bin	0.0003426144	1884
bin	0.0003434688	1775
bin	0.0003443232	1837
bin	0.0003451776	1777
bin	0.000346032	1831
bin	0.0003468864	1793
bin	0.0003477408	1809
bin	0.0003485952	1867
bin	0.0003494496	1956
bin	0.000350304	1865
bin	0.0003511584	1766
bin	0.0003520128	1840
bin	0.0003528672	1774
bin	0.0003537216	1830
bin	0.000354576	1774
bin	0.0003554304	1842
bin	0.0003562848	1795
bin	0.0003571392	1873
bin	0.0003579936	1824
bin	0.000358848	1921
bin	0.0003597024	1948
bin	0.0003605568	1956
bin	0.0003614112	1934
bin	0.0003622656	1902
bin	0.00036312	1913
bin	0.0003639744	1882
bin	0.0003648288	1945
bin	0.0003656832	1878
bin	0.0003665376	1832
bin	0.000367392	1926
bin	0.0003682464	1971
bin	0.0003691008	1901
bin	0.0003699552	1953
bin	0.0003708096	1988
bin	0.000371664	1971
bin	0.0003725184	1966
bin	0.0003733728	1886
bin	0.0003742272	1925
bin	0.0003750816	1817
bin	0.000375936	1805
bin	0.0003767904	1823
bin	0.0003776448	1815
bin	0.0003784992	1797
bin	0.0003793536	1754
bin	0.000380208	1763
bin	0.0003810624	1747
bin	0.0003819168	1689
bin	0.0003827712	1758
bin	0.0003836256	1772
bin	0.00038448	1689
bin	0.0003853344	1646
bin	0.0003861888	1758
bin	0.0003870432	1705
bin	0.0003878976	1770
bin	0.000388752	1730
bin	0.0003896064	1734
bin	0.0003904608	1714
bin	0.0003913152	1658
bin	0.0003921696	1734
bin	0.000393024	1728
bin	0.0003938784	1747
bin	0.0003947328	1622
bin	0.0003955872	1689
bin	0.0003964416	1765
bin	0.000397296	1809
bin	0.0003981504	1698
bin	0.0003990048	1748
bin	0.0003998592	1819
bin	0.0004007136	1739
bin	0.000401568	1804
bin	0.0004024224	1765
bin	0.0004032768	1778
bin	0.0004041312	1798
bin	0.0004049856	1731
bin	0.00040584	1678
bin	0.0004066944	1842
bin	0.0004075488	1797
bin	0.0004084032	1846
bin	0.0004092576	1818
bin	0.000410112	1852
bin	0.0004109664	1897
bin	0.0004118208	1873
bin	0.0004126752	1839
bin	0.0004135296	1878
bin	0.000414384	1900
bin	0.0004152384	1788
bin	0.0004160928	1723
bin	0.0004169472	1794
bin	0.0004178016	1849
bin	0.000418656	1717
bin	0.0004195104	1676
bin	0.0004203648	1707
bin	0.0004212192	1706
bin	0.0004220736	1741
bin	0.000422928	1656
bin	0.0004237824	1652
bin	0.0004246368	1642
bin	0.0004254912	1676
bin	0.0004263456	1592
bin	0.0004272	2298201
