version 2
run Transposition-33-20120710-10:40:34-25355
attr alg 1
attr buf 8
attr configname Transposition
attr datetime 20120710-10:40:34
attr delta 0.8
attr experiment Transposition
attr ext true
attr inifile altro.ini
attr iterationvars "$buf=8, $ext=true, $ofedge=2, $delta=0.8, $alg=1"
attr iterationvars2 "$buf=8, $ext=true, $ofedge=2, $delta=0.8, $alg=1, $repetition=0"
attr measurement "$buf=8, $ext=true, $ofedge=2, $delta=0.8, $alg=1"
attr network Torus3d_bub
attr ofedge 2
attr processid 25355
attr repetition 0
attr replication #0
attr resultdir altro-results
attr runnumber 33
attr seedset 33

scalar . 	alg 	1
scalar . 	buf 	8
scalar . 	delta 	0.8
scalar . 	ofedge 	2
scalar Torus3d_bub.timer 	#endTime 	0.004683726993152
scalar Torus3d_bub.timer 	#totalHops 	88684764
scalar Torus3d_bub.timer 	#totalPacks 	6291456
scalar Torus3d_bub.timer 	#totalDerouted 	1858525
scalar Torus3d_bub.timer 	#totalOutFlanked 	1858525
scalar Torus3d_bub.timer 	#totalCQRed 	0
scalar Torus3d_bub.timer 	#LB 	0.000786432
scalar Torus3d_bub.timer 	#ratio 	0.16790730995846
statistic Torus3d_bub.timer 	"Hop Times"
field count 6193152
field mean 0.0001124054705705
field stddev 7.6995548988248e-05
field sum 696.14416487461
field sqrsum 0.114965359708
field min 4.01999999e-07
field max 0.000814194599989
bin	-INF	0
bin	0	0
bin	7.12e-08	0
bin	1.424e-07	0
bin	2.136e-07	0
bin	2.848e-07	0
bin	3.56e-07	29
bin	4.272e-07	825
bin	4.984e-07	2028
bin	5.696e-07	3429
bin	6.408e-07	4939
bin	7.12e-07	6319
bin	7.832e-07	7676
bin	8.544e-07	8678
bin	9.256e-07	9517
bin	9.968e-07	10529
bin	1.068e-06	11369
bin	1.1392e-06	12264
bin	1.2104e-06	13338
bin	1.2816e-06	14493
bin	1.3528e-06	16095
bin	1.424e-06	17373
bin	1.4952e-06	19266
bin	1.5664e-06	20826
bin	1.6376e-06	21877
bin	1.7088e-06	22598
bin	1.78e-06	23018
bin	1.8512e-06	23515
bin	1.9224e-06	23512
bin	1.9936e-06	23713
bin	2.0648e-06	23389
bin	2.136e-06	23107
bin	2.2072e-06	22617
bin	2.2784e-06	21981
bin	2.3496e-06	21603
bin	2.4208e-06	20627
bin	2.492e-06	19975
bin	2.5632e-06	19134
bin	2.6344e-06	18295
bin	2.7056e-06	17556
bin	2.7768e-06	16783
bin	2.848e-06	15990
bin	2.9192e-06	15615
bin	2.9904e-06	14706
bin	3.0616e-06	14014
bin	3.1328e-06	13495
bin	3.204e-06	12755
bin	3.2752e-06	12382
bin	3.3464e-06	11814
bin	3.4176e-06	11281
bin	3.4888e-06	10734
bin	3.56e-06	10381
bin	3.6312e-06	9858
bin	3.7024e-06	9432
bin	3.7736e-06	8964
bin	3.8448e-06	8716
bin	3.916e-06	8190
bin	3.9872e-06	7988
bin	4.0584e-06	7635
bin	4.1296e-06	7343
bin	4.2008e-06	7076
bin	4.272e-06	6931
bin	4.3432e-06	6583
bin	4.4144e-06	6505
bin	4.4856e-06	6349
bin	4.5568e-06	6179
bin	4.628e-06	5872
bin	4.6992e-06	5684
bin	4.7704e-06	5666
bin	4.8416e-06	5513
bin	4.9128e-06	5447
bin	4.984e-06	5253
bin	5.0552e-06	5136
bin	5.1264e-06	4952
bin	5.1976e-06	4951
bin	5.2688e-06	4877
bin	5.34e-06	4738
bin	5.4112e-06	4603
bin	5.4824e-06	4581
bin	5.5536e-06	4358
bin	5.6248e-06	4374
bin	5.696e-06	4199
bin	5.7672e-06	4163
bin	5.8384e-06	4088
bin	5.9096e-06	3884
bin	5.9808e-06	3874
bin	6.052e-06	3715
bin	6.1232e-06	3593
bin	6.1944e-06	3780
bin	6.2656e-06	3735
bin	6.3368e-06	3595
bin	6.408e-06	3561
bin	6.4792e-06	3455
bin	6.5504e-06	3365
bin	6.6216e-06	3377
bin	6.6928e-06	3225
bin	6.764e-06	3123
bin	6.8352e-06	3108
bin	6.9064e-06	3021
bin	6.9776e-06	3078
bin	7.0488e-06	2985
bin	7.12e-06	2870
bin	7.1912e-06	2882
bin	7.2624e-06	2855
bin	7.3336e-06	2647
bin	7.4048e-06	2719
bin	7.476e-06	2613
bin	7.5472e-06	2523
bin	7.6184e-06	2411
bin	7.6896e-06	2437
bin	7.7608e-06	2353
bin	7.832e-06	2356
bin	7.9032e-06	2369
bin	7.9744e-06	2414
bin	8.0456e-06	2403
bin	8.1168e-06	2261
bin	8.188e-06	2286
bin	8.2592e-06	2158
bin	8.3304e-06	2106
bin	8.4016e-06	2141
bin	8.4728e-06	2146
bin	8.544e-06	2117
bin	8.6152e-06	2028
bin	8.6864e-06	2061
bin	8.7576e-06	2075
bin	8.8288e-06	2022
bin	8.9e-06	1998
bin	8.9712e-06	2007
bin	9.0424e-06	2038
bin	9.1136e-06	1996
bin	9.1848e-06	2038
bin	9.256e-06	2033
bin	9.3272e-06	2057
bin	9.3984e-06	1996
bin	9.4696e-06	1999
bin	9.5408e-06	1995
bin	9.612e-06	2020
bin	9.6832e-06	1983
bin	9.7544e-06	1982
bin	9.8256e-06	2016
bin	9.8968e-06	1958
bin	9.968e-06	1936
bin	1.00392e-05	1876
bin	1.01104e-05	1899
bin	1.01816e-05	1776
bin	1.02528e-05	1790
bin	1.0324e-05	1854
bin	1.03952e-05	1794
bin	1.04664e-05	1853
bin	1.05376e-05	1776
bin	1.06088e-05	1732
bin	1.068e-05	1771
bin	1.07512e-05	1713
bin	1.08224e-05	1774
bin	1.08936e-05	1761
bin	1.09648e-05	1720
bin	1.1036e-05	1665
bin	1.11072e-05	1700
bin	1.11784e-05	1657
bin	1.12496e-05	1720
bin	1.13208e-05	1747
bin	1.1392e-05	1704
bin	1.14632e-05	1749
bin	1.15344e-05	1700
bin	1.16056e-05	1639
bin	1.16768e-05	1673
bin	1.1748e-05	1712
bin	1.18192e-05	1735
bin	1.18904e-05	1722
bin	1.19616e-05	1677
bin	1.20328e-05	1730
bin	1.2104e-05	1729
bin	1.21752e-05	1731
bin	1.22464e-05	1743
bin	1.23176e-05	1609
bin	1.23888e-05	1705
bin	1.246e-05	1718
bin	1.25312e-05	1691
bin	1.26024e-05	1653
bin	1.26736e-05	1712
bin	1.27448e-05	1712
bin	1.2816e-05	1655
bin	1.28872e-05	1603
bin	1.29584e-05	1575
bin	1.30296e-05	1625
bin	1.31008e-05	1611
bin	1.3172e-05	1567
bin	1.32432e-05	1530
bin	1.33144e-05	1550
bin	1.33856e-05	1467
bin	1.34568e-05	1469
bin	1.3528e-05	1395
bin	1.35992e-05	1426
bin	1.36704e-05	1436
bin	1.37416e-05	1393
bin	1.38128e-05	1368
bin	1.3884e-05	1471
bin	1.39552e-05	1385
bin	1.40264e-05	1388
bin	1.40976e-05	1377
bin	1.41688e-05	1406
bin	1.424e-05	1422
bin	1.43112e-05	1433
bin	1.43824e-05	1394
bin	1.44536e-05	1373
bin	1.45248e-05	1359
bin	1.4596e-05	1437
bin	1.46672e-05	1406
bin	1.47384e-05	1441
bin	1.48096e-05	1398
bin	1.48808e-05	1410
bin	1.4952e-05	1369
bin	1.50232e-05	1471
bin	1.50944e-05	1462
bin	1.51656e-05	1399
bin	1.52368e-05	1382
bin	1.5308e-05	1431
bin	1.53792e-05	1360
bin	1.54504e-05	1406
bin	1.55216e-05	1406
bin	1.55928e-05	1363
bin	1.5664e-05	1369
bin	1.57352e-05	1374
bin	1.58064e-05	1386
bin	1.58776e-05	1335
bin	1.59488e-05	1349
bin	1.602e-05	1297
bin	1.60912e-05	1344
bin	1.61624e-05	1315
bin	1.62336e-05	1324
bin	1.63048e-05	1353
bin	1.6376e-05	1287
bin	1.64472e-05	1335
bin	1.65184e-05	1318
bin	1.65896e-05	1341
bin	1.66608e-05	1300
bin	1.6732e-05	1333
bin	1.68032e-05	1372
bin	1.68744e-05	1312
bin	1.69456e-05	1331
bin	1.70168e-05	1398
bin	1.7088e-05	1372
bin	1.71592e-05	1412
bin	1.72304e-05	1342
bin	1.73016e-05	1333
bin	1.73728e-05	1305
bin	1.7444e-05	1328
bin	1.75152e-05	1313
bin	1.75864e-05	1333
bin	1.76576e-05	1283
bin	1.77288e-05	1377
bin	1.78e-05	1322
bin	1.78712e-05	1340
bin	1.79424e-05	1252
bin	1.80136e-05	1307
bin	1.80848e-05	1307
bin	1.8156e-05	1300
bin	1.82272e-05	1315
bin	1.82984e-05	1363
bin	1.83696e-05	1354
bin	1.84408e-05	1360
bin	1.8512e-05	1379
bin	1.85832e-05	1321
bin	1.86544e-05	1324
bin	1.87256e-05	1318
bin	1.87968e-05	1314
bin	1.8868e-05	1297
bin	1.89392e-05	1338
bin	1.90104e-05	1271
bin	1.90816e-05	1289
bin	1.91528e-05	1294
bin	1.9224e-05	1264
bin	1.92952e-05	1196
bin	1.93664e-05	1205
bin	1.94376e-05	1246
bin	1.95088e-05	1181
bin	1.958e-05	1171
bin	1.96512e-05	1222
bin	1.97224e-05	1121
bin	1.97936e-05	1133
bin	1.98648e-05	1117
bin	1.9936e-05	1072
bin	2.00072e-05	1063
bin	2.00784e-05	1088
bin	2.01496e-05	1081
bin	2.02208e-05	1078
bin	2.0292e-05	1130
bin	2.03632e-05	1110
bin	2.04344e-05	1100
bin	2.05056e-05	1124
bin	2.05768e-05	1145
bin	2.0648e-05	1114
bin	2.07192e-05	1165
bin	2.07904e-05	1141
bin	2.08616e-05	1099
bin	2.09328e-05	1132
bin	2.1004e-05	1156
bin	2.10752e-05	1137
bin	2.11464e-05	1137
bin	2.12176e-05	1126
bin	2.12888e-05	1123
bin	2.136e-05	1121
bin	2.14312e-05	1084
bin	2.15024e-05	1111
bin	2.15736e-05	1081
bin	2.16448e-05	1085
bin	2.1716e-05	1122
bin	2.17872e-05	1194
bin	2.18584e-05	1143
bin	2.19296e-05	1118
bin	2.20008e-05	1136
bin	2.2072e-05	1143
bin	2.21432e-05	1102
bin	2.22144e-05	1103
bin	2.22856e-05	1130
bin	2.23568e-05	1087
bin	2.2428e-05	1102
bin	2.24992e-05	1079
bin	2.25704e-05	1098
bin	2.26416e-05	1089
bin	2.27128e-05	1083
bin	2.2784e-05	1044
bin	2.28552e-05	1076
bin	2.29264e-05	1051
bin	2.29976e-05	1081
bin	2.30688e-05	1067
bin	2.314e-05	1012
bin	2.32112e-05	1086
bin	2.32824e-05	1075
bin	2.33536e-05	1073
bin	2.34248e-05	1086
bin	2.3496e-05	1025
bin	2.35672e-05	1028
bin	2.36384e-05	970
bin	2.37096e-05	1061
bin	2.37808e-05	999
bin	2.3852e-05	1096
bin	2.39232e-05	1051
bin	2.39944e-05	1015
bin	2.40656e-05	1076
bin	2.41368e-05	1007
bin	2.4208e-05	1088
bin	2.42792e-05	1070
bin	2.43504e-05	1065
bin	2.44216e-05	1074
bin	2.44928e-05	984
bin	2.4564e-05	1065
bin	2.46352e-05	1081
bin	2.47064e-05	1086
bin	2.47776e-05	991
bin	2.48488e-05	1011
bin	2.492e-05	1044
bin	2.49912e-05	1057
bin	2.50624e-05	1032
bin	2.51336e-05	1048
bin	2.52048e-05	1022
bin	2.5276e-05	1132
bin	2.53472e-05	1039
bin	2.54184e-05	1068
bin	2.54896e-05	1066
bin	2.55608e-05	1052
bin	2.5632e-05	1041
bin	2.57032e-05	1052
bin	2.57744e-05	973
bin	2.58456e-05	1011
bin	2.59168e-05	1004
bin	2.5988e-05	983
bin	2.60592e-05	1009
bin	2.61304e-05	989
bin	2.62016e-05	917
bin	2.62728e-05	990
bin	2.6344e-05	982
bin	2.64152e-05	963
bin	2.64864e-05	932
bin	2.65576e-05	1064
bin	2.66288e-05	947
bin	2.67e-05	948
bin	2.67712e-05	990
bin	2.68424e-05	981
bin	2.69136e-05	938
bin	2.69848e-05	910
bin	2.7056e-05	868
bin	2.71272e-05	997
bin	2.71984e-05	974
bin	2.72696e-05	945
bin	2.73408e-05	942
bin	2.7412e-05	937
bin	2.74832e-05	959
bin	2.75544e-05	985
bin	2.76256e-05	984
bin	2.76968e-05	973
bin	2.7768e-05	973
bin	2.78392e-05	913
bin	2.79104e-05	973
bin	2.79816e-05	953
bin	2.80528e-05	947
bin	2.8124e-05	933
bin	2.81952e-05	966
bin	2.82664e-05	982
bin	2.83376e-05	940
bin	2.84088e-05	993
bin	2.848e-05	993
bin	2.85512e-05	912
bin	2.86224e-05	944
bin	2.86936e-05	974
bin	2.87648e-05	944
bin	2.8836e-05	926
bin	2.89072e-05	847
bin	2.89784e-05	880
bin	2.90496e-05	901
bin	2.91208e-05	880
bin	2.9192e-05	840
bin	2.92632e-05	892
bin	2.93344e-05	840
bin	2.94056e-05	913
bin	2.94768e-05	880
bin	2.9548e-05	918
bin	2.96192e-05	910
bin	2.96904e-05	955
bin	2.97616e-05	948
bin	2.98328e-05	938
bin	2.9904e-05	922
bin	2.99752e-05	860
bin	3.00464e-05	911
bin	3.01176e-05	976
bin	3.01888e-05	943
bin	3.026e-05	990
bin	3.03312e-05	1057
bin	3.04024e-05	996
bin	3.04736e-05	1037
bin	3.05448e-05	1040
bin	3.0616e-05	1026
bin	3.06872e-05	1051
bin	3.07584e-05	1022
bin	3.08296e-05	1041
bin	3.09008e-05	1019
bin	3.0972e-05	1000
bin	3.10432e-05	986
bin	3.11144e-05	1048
bin	3.11856e-05	1019
bin	3.12568e-05	936
bin	3.1328e-05	918
bin	3.13992e-05	906
bin	3.14704e-05	895
bin	3.15416e-05	887
bin	3.16128e-05	906
bin	3.1684e-05	859
bin	3.17552e-05	954
bin	3.18264e-05	892
bin	3.18976e-05	925
bin	3.19688e-05	933
bin	3.204e-05	938
bin	3.21112e-05	920
bin	3.21824e-05	902
bin	3.22536e-05	945
bin	3.23248e-05	989
bin	3.2396e-05	987
bin	3.24672e-05	935
bin	3.25384e-05	983
bin	3.26096e-05	969
bin	3.26808e-05	1016
bin	3.2752e-05	1027
bin	3.28232e-05	999
bin	3.28944e-05	1038
bin	3.29656e-05	1033
bin	3.30368e-05	1041
bin	3.3108e-05	1064
bin	3.31792e-05	1063
bin	3.32504e-05	1095
bin	3.33216e-05	1089
bin	3.33928e-05	1065
bin	3.3464e-05	1053
bin	3.35352e-05	1022
bin	3.36064e-05	942
bin	3.36776e-05	983
bin	3.37488e-05	975
bin	3.382e-05	949
bin	3.38912e-05	977
bin	3.39624e-05	907
bin	3.40336e-05	938
bin	3.41048e-05	948
bin	3.4176e-05	971
bin	3.42472e-05	958
bin	3.43184e-05	991
bin	3.43896e-05	926
bin	3.44608e-05	943
bin	3.4532e-05	936
bin	3.46032e-05	955
bin	3.46744e-05	960
bin	3.47456e-05	923
bin	3.48168e-05	901
bin	3.4888e-05	882
bin	3.49592e-05	891
bin	3.50304e-05	899
bin	3.51016e-05	936
bin	3.51728e-05	978
bin	3.5244e-05	948
bin	3.53152e-05	865
bin	3.53864e-05	918
bin	3.54576e-05	906
bin	3.55288e-05	983
bin	3.56e-05	4736877
statistic Torus3d_bub.timer 	"Life Times"
field count 6291456
field mean 0.0016364955771208
field stddev 0.001190105706891
field sum 10295.93991765
field sqrsum 25.760172452688
field min 3.77331845e-07
field max 0.004567013326545
bin	-INF	0
bin	0	6144
bin	8.544e-07	8192
bin	1.7088e-06	8598
bin	2.5632e-06	10191
bin	3.4176e-06	11466
bin	4.272e-06	12733
bin	5.1264e-06	14255
bin	5.9808e-06	15529
bin	6.8352e-06	16826
bin	7.6896e-06	18413
bin	8.544e-06	19657
bin	9.3984e-06	20967
bin	1.02528e-05	15886
bin	1.11072e-05	14662
bin	1.19616e-05	15309
bin	1.2816e-05	15957
bin	1.36704e-05	16693
bin	1.45248e-05	17152
bin	1.53792e-05	17590
bin	1.62336e-05	17902
bin	1.7088e-05	18233
bin	1.79424e-05	18514
bin	1.87968e-05	18735
bin	1.96512e-05	18674
bin	2.05056e-05	19355
bin	2.136e-05	19702
bin	2.22144e-05	20043
bin	2.30688e-05	20599
bin	2.39232e-05	20932
bin	2.47776e-05	21550
bin	2.5632e-05	22201
bin	2.64864e-05	22763
bin	2.73408e-05	23152
bin	2.81952e-05	23286
bin	2.90496e-05	23007
bin	2.9904e-05	22614
bin	3.07584e-05	22671
bin	3.16128e-05	21772
bin	3.24672e-05	20467
bin	3.33216e-05	19446
bin	3.4176e-05	18242
bin	3.50304e-05	16983
bin	3.58848e-05	15843
bin	3.67392e-05	14312
bin	3.75936e-05	13211
bin	3.8448e-05	12008
bin	3.93024e-05	10872
bin	4.01568e-05	9957
bin	4.10112e-05	8786
bin	4.18656e-05	8160
bin	4.272e-05	7583
bin	4.35744e-05	7074
bin	4.44288e-05	6662
bin	4.52832e-05	6234
bin	4.61376e-05	6194
bin	4.6992e-05	5873
bin	4.78464e-05	5788
bin	4.87008e-05	5468
bin	4.95552e-05	5344
bin	5.04096e-05	5458
bin	5.1264e-05	5296
bin	5.21184e-05	5265
bin	5.29728e-05	5277
bin	5.38272e-05	5312
bin	5.46816e-05	5230
bin	5.5536e-05	5137
bin	5.63904e-05	5200
bin	5.72448e-05	5179
bin	5.80992e-05	4998
bin	5.89536e-05	5140
bin	5.9808e-05	5227
bin	6.06624e-05	5200
bin	6.15168e-05	5247
bin	6.23712e-05	5198
bin	6.32256e-05	5161
bin	6.408e-05	5082
bin	6.49344e-05	5079
bin	6.57888e-05	4819
bin	6.66432e-05	4532
bin	6.74976e-05	4359
bin	6.8352e-05	4155
bin	6.92064e-05	3855
bin	7.00608e-05	3595
bin	7.09152e-05	3538
bin	7.17696e-05	3455
bin	7.2624e-05	3161
bin	7.34784e-05	2990
bin	7.43328e-05	2965
bin	7.51872e-05	2804
bin	7.60416e-05	2796
bin	7.6896e-05	2693
bin	7.77504e-05	2673
bin	7.86048e-05	2716
bin	7.94592e-05	2737
bin	8.03136e-05	2780
bin	8.1168e-05	2713
bin	8.20224e-05	2737
bin	8.28768e-05	2755
bin	8.37312e-05	2696
bin	8.45856e-05	2808
bin	8.544e-05	2748
bin	8.62944e-05	2736
bin	8.71488e-05	2809
bin	8.80032e-05	2830
bin	8.88576e-05	2867
bin	8.9712e-05	2827
bin	9.05664e-05	3027
bin	9.14208e-05	2952
bin	9.22752e-05	3025
bin	9.31296e-05	3115
bin	9.3984e-05	3003
bin	9.48384e-05	2926
bin	9.56928e-05	2864
bin	9.65472e-05	2758
bin	9.74016e-05	2739
bin	9.8256e-05	2595
bin	9.91104e-05	2480
bin	9.99648e-05	2422
bin	0.0001008192	2319
bin	0.0001016736	2306
bin	0.000102528	2172
bin	0.0001033824	2078
bin	0.0001042368	1985
bin	0.0001050912	1943
bin	0.0001059456	1967
bin	0.0001068	1918
bin	0.0001076544	1773
bin	0.0001085088	1798
bin	0.0001093632	1845
bin	0.0001102176	1783
bin	0.000111072	1914
bin	0.0001119264	1990
bin	0.0001127808	1970
bin	0.0001136352	1889
bin	0.0001144896	2063
bin	0.000115344	2056
bin	0.0001161984	2050
bin	0.0001170528	2038
bin	0.0001179072	2048
bin	0.0001187616	2122
bin	0.000119616	2102
bin	0.0001204704	2147
bin	0.0001213248	2096
bin	0.0001221792	2159
bin	0.0001230336	2176
bin	0.000123888	2212
bin	0.0001247424	2139
bin	0.0001255968	2202
bin	0.0001264512	2142
bin	0.0001273056	2108
bin	0.00012816	2000
bin	0.0001290144	1983
bin	0.0001298688	1938
bin	0.0001307232	1795
bin	0.0001315776	1731
bin	0.000132432	1679
bin	0.0001332864	1533
bin	0.0001341408	1593
bin	0.0001349952	1561
bin	0.0001358496	1598
bin	0.000136704	1577
bin	0.0001375584	1476
bin	0.0001384128	1555
bin	0.0001392672	1574
bin	0.0001401216	1503
bin	0.000140976	1517
bin	0.0001418304	1521
bin	0.0001426848	1535
bin	0.0001435392	1602
bin	0.0001443936	1645
bin	0.000145248	1600
bin	0.0001461024	1586
bin	0.0001469568	1679
bin	0.0001478112	1657
bin	0.0001486656	1652
bin	0.00014952	1707
bin	0.0001503744	1707
bin	0.0001512288	1728
bin	0.0001520832	1711
bin	0.0001529376	1883
bin	0.000153792	1804
bin	0.0001546464	1795
bin	0.0001555008	1824
bin	0.0001563552	1805
bin	0.0001572096	1797
bin	0.000158064	1700
bin	0.0001589184	1715
bin	0.0001597728	1584
bin	0.0001606272	1550
bin	0.0001614816	1572
bin	0.000162336	1473
bin	0.0001631904	1486
bin	0.0001640448	1394
bin	0.0001648992	1406
bin	0.0001657536	1435
bin	0.000166608	1349
bin	0.0001674624	1344
bin	0.0001683168	1400
bin	0.0001691712	1374
bin	0.0001700256	1363
bin	0.00017088	1361
bin	0.0001717344	1432
bin	0.0001725888	1437
bin	0.0001734432	1395
bin	0.0001742976	1491
bin	0.000175152	1421
bin	0.0001760064	1523
bin	0.0001768608	1544
bin	0.0001777152	1577
bin	0.0001785696	1544
bin	0.000179424	1519
bin	0.0001802784	1545
bin	0.0001811328	1483
bin	0.0001819872	1591
bin	0.0001828416	1636
bin	0.000183696	1637
bin	0.0001845504	1683
bin	0.0001854048	1667
bin	0.0001862592	1751
bin	0.0001871136	1787
bin	0.000187968	1675
bin	0.0001888224	1683
bin	0.0001896768	1614
bin	0.0001905312	1548
bin	0.0001913856	1531
bin	0.00019224	1497
bin	0.0001930944	1411
bin	0.0001939488	1404
bin	0.0001948032	1298
bin	0.0001956576	1332
bin	0.000196512	1291
bin	0.0001973664	1305
bin	0.0001982208	1194
bin	0.0001990752	1283
bin	0.0001999296	1195
bin	0.000200784	1246
bin	0.0002016384	1253
bin	0.0002024928	1259
bin	0.0002033472	1279
bin	0.0002042016	1264
bin	0.000205056	1327
bin	0.0002059104	1346
bin	0.0002067648	1387
bin	0.0002076192	1376
bin	0.0002084736	1342
bin	0.000209328	1343
bin	0.0002101824	1413
bin	0.0002110368	1430
bin	0.0002118912	1413
bin	0.0002127456	1473
bin	0.0002136	1483
bin	0.0002144544	1459
bin	0.0002153088	1378
bin	0.0002161632	1402
bin	0.0002170176	1411
bin	0.000217872	1452
bin	0.0002187264	1389
bin	0.0002195808	1460
bin	0.0002204352	1364
bin	0.0002212896	1351
bin	0.000222144	1293
bin	0.0002229984	1273
bin	0.0002238528	1230
bin	0.0002247072	1181
bin	0.0002255616	1204
bin	0.000226416	1147
bin	0.0002272704	1165
bin	0.0002281248	1135
bin	0.0002289792	1142
bin	0.0002298336	1136
bin	0.000230688	1135
bin	0.0002315424	1158
bin	0.0002323968	1131
bin	0.0002332512	1168
bin	0.0002341056	1185
bin	0.00023496	1167
bin	0.0002358144	1229
bin	0.0002366688	1156
bin	0.0002375232	1230
bin	0.0002383776	1301
bin	0.000239232	1302
bin	0.0002400864	1314
bin	0.0002409408	1329
bin	0.0002417952	1294
bin	0.0002426496	1291
bin	0.000243504	1263
bin	0.0002443584	1283
bin	0.0002452128	1291
bin	0.0002460672	1367
bin	0.0002469216	1352
bin	0.000247776	1319
bin	0.0002486304	1377
bin	0.0002494848	1338
bin	0.0002503392	1202
bin	0.0002511936	1208
bin	0.000252048	1230
bin	0.0002529024	1214
bin	0.0002537568	1202
bin	0.0002546112	1127
bin	0.0002554656	1176
bin	0.00025632	1100
bin	0.0002571744	1066
bin	0.0002580288	1102
bin	0.0002588832	1075
bin	0.0002597376	1018
bin	0.000260592	1089
bin	0.0002614464	1069
bin	0.0002623008	1054
bin	0.0002631552	1096
bin	0.0002640096	1057
bin	0.000264864	1043
bin	0.0002657184	1097
bin	0.0002665728	1101
bin	0.0002674272	1173
bin	0.0002682816	1108
bin	0.000269136	1106
bin	0.0002699904	1070
bin	0.0002708448	1034
bin	0.0002716992	1119
bin	0.0002725536	1121
bin	0.000273408	1118
bin	0.0002742624	1111
bin	0.0002751168	1194
bin	0.0002759712	1194
bin	0.0002768256	1214
bin	0.00027768	1244
bin	0.0002785344	1166
bin	0.0002793888	1131
bin	0.0002802432	1177
bin	0.0002810976	1181
bin	0.000281952	1146
bin	0.0002828064	1103
bin	0.0002836608	1089
bin	0.0002845152	1038
bin	0.0002853696	1062
bin	0.000286224	1008
bin	0.0002870784	1007
bin	0.0002879328	978
bin	0.0002887872	945
bin	0.0002896416	959
bin	0.000290496	932
bin	0.0002913504	918
bin	0.0002922048	981
bin	0.0002930592	967
bin	0.0002939136	990
bin	0.000294768	996
bin	0.0002956224	1008
bin	0.0002964768	1033
bin	0.0002973312	1024
bin	0.0002981856	1016
bin	0.00029904	1038
bin	0.0002998944	1057
bin	0.0003007488	1015
bin	0.0003016032	1036
bin	0.0003024576	1046
bin	0.000303312	1005
bin	0.0003041664	1039
bin	0.0003050208	1020
bin	0.0003058752	1058
bin	0.0003067296	1094
bin	0.000307584	1107
bin	0.0003084384	1088
bin	0.0003092928	1048
bin	0.0003101472	1119
bin	0.0003110016	1084
bin	0.000311856	1118
bin	0.0003127104	1055
bin	0.0003135648	1073
bin	0.0003144192	1084
bin	0.0003152736	1034
bin	0.000316128	984
bin	0.0003169824	1017
bin	0.0003178368	948
bin	0.0003186912	981
bin	0.0003195456	972
bin	0.0003204	938
bin	0.0003212544	926
bin	0.0003221088	916
bin	0.0003229632	891
bin	0.0003238176	951
bin	0.000324672	981
bin	0.0003255264	999
bin	0.0003263808	956
bin	0.0003272352	1012
bin	0.0003280896	968
bin	0.000328944	967
bin	0.0003297984	979
bin	0.0003306528	994
bin	0.0003315072	1034
bin	0.0003323616	1031
bin	0.000333216	1089
bin	0.0003340704	1048
bin	0.0003349248	992
bin	0.0003357792	1026
bin	0.0003366336	1077
bin	0.000337488	1085
bin	0.0003383424	1052
bin	0.0003391968	1027
bin	0.0003400512	1084
bin	0.0003409056	1056
bin	0.00034176	1068
bin	0.0003426144	979
bin	0.0003434688	1016
bin	0.0003443232	1008
bin	0.0003451776	948
bin	0.000346032	878
bin	0.0003468864	910
bin	0.0003477408	886
bin	0.0003485952	854
bin	0.0003494496	830
bin	0.000350304	816
bin	0.0003511584	823
bin	0.0003520128	807
bin	0.0003528672	837
bin	0.0003537216	840
bin	0.000354576	878
bin	0.0003554304	860
bin	0.0003562848	917
bin	0.0003571392	887
bin	0.0003579936	925
bin	0.000358848	987
bin	0.0003597024	915
bin	0.0003605568	909
bin	0.0003614112	958
bin	0.0003622656	936
bin	0.00036312	988
bin	0.0003639744	946
bin	0.0003648288	983
bin	0.0003656832	988
bin	0.0003665376	984
bin	0.000367392	961
bin	0.0003682464	948
bin	0.0003691008	960
bin	0.0003699552	976
bin	0.0003708096	1025
bin	0.000371664	1022
bin	0.0003725184	981
bin	0.0003733728	957
bin	0.0003742272	939
bin	0.0003750816	953
bin	0.000375936	909
bin	0.0003767904	934
bin	0.0003776448	887
bin	0.0003784992	884
bin	0.0003793536	875
bin	0.000380208	846
bin	0.0003810624	847
bin	0.0003819168	843
bin	0.0003827712	811
bin	0.0003836256	841
bin	0.00038448	831
bin	0.0003853344	881
bin	0.0003861888	873
bin	0.0003870432	878
bin	0.0003878976	894
bin	0.000388752	884
bin	0.0003896064	931
bin	0.0003904608	942
bin	0.0003913152	920
bin	0.0003921696	1007
bin	0.000393024	983
bin	0.0003938784	955
bin	0.0003947328	969
bin	0.0003955872	972
bin	0.0003964416	962
bin	0.000397296	960
bin	0.0003981504	963
bin	0.0003990048	1018
bin	0.0003998592	1018
bin	0.0004007136	982
bin	0.000401568	1002
bin	0.0004024224	969
bin	0.0004032768	926
bin	0.0004041312	933
bin	0.0004049856	910
bin	0.00040584	872
bin	0.0004066944	863
bin	0.0004075488	927
bin	0.0004084032	893
bin	0.0004092576	908
bin	0.000410112	902
bin	0.0004109664	905
bin	0.0004118208	880
bin	0.0004126752	857
bin	0.0004135296	856
bin	0.000414384	865
bin	0.0004152384	882
bin	0.0004160928	868
bin	0.0004169472	847
bin	0.0004178016	792
bin	0.000418656	863
bin	0.0004195104	847
bin	0.0004203648	872
bin	0.0004212192	937
bin	0.0004220736	935
bin	0.000422928	917
bin	0.0004237824	879
bin	0.0004246368	935
bin	0.0004254912	954
bin	0.0004263456	965
bin	0.0004272	4697376
