version 2
run Transposition-38-20120710-11:17:42-25398
attr alg 2
attr buf 8
attr configname Transposition
attr datetime 20120710-11:17:42
attr delta 1
attr experiment Transposition
attr ext true
attr inifile altro.ini
attr iterationvars "$buf=8, $ext=true, $ofedge=2, $delta=1, $alg=2"
attr iterationvars2 "$buf=8, $ext=true, $ofedge=2, $delta=1, $alg=2, $repetition=0"
attr measurement "$buf=8, $ext=true, $ofedge=2, $delta=1, $alg=2"
attr network Torus3d_bub
attr ofedge 2
attr processid 25398
attr repetition 0
attr replication #0
attr resultdir altro-results
attr runnumber 38
attr seedset 38

scalar . 	alg 	2
scalar . 	buf 	8
scalar . 	delta 	1
scalar . 	ofedge 	2
scalar Torus3d_bub.timer 	#endTime 	0.004665784999998
scalar Torus3d_bub.timer 	#totalHops 	89837422
scalar Torus3d_bub.timer 	#totalPacks 	6291456
scalar Torus3d_bub.timer 	#totalDerouted 	1935090
scalar Torus3d_bub.timer 	#totalOutFlanked 	0
scalar Torus3d_bub.timer 	#totalCQRed 	1935090
scalar Torus3d_bub.timer 	#LB 	0.000786432
scalar Torus3d_bub.timer 	#ratio 	0.16855298733232
statistic Torus3d_bub.timer 	"Hop Times"
field count 6193152
field mean 0.00013778875187525
field stddev 9.4015840168304e-05
field sum 853.3466842537
field sqrsum 0.17232270123431
field min 3.97925925e-07
field max 0.000924226066666
bin	-INF	0
bin	0	0
bin	7.12e-08	0
bin	1.424e-07	0
bin	2.136e-07	0
bin	2.848e-07	0
bin	3.56e-07	28
bin	4.272e-07	704
bin	4.984e-07	1390
bin	5.696e-07	2144
bin	6.408e-07	3112
bin	7.12e-07	4194
bin	7.832e-07	5045
bin	8.544e-07	5848
bin	9.256e-07	6581
bin	9.968e-07	7326
bin	1.068e-06	8021
bin	1.1392e-06	8720
bin	1.2104e-06	9542
bin	1.2816e-06	10239
bin	1.3528e-06	11304
bin	1.424e-06	12628
bin	1.4952e-06	13589
bin	1.5664e-06	14275
bin	1.6376e-06	15078
bin	1.7088e-06	15475
bin	1.78e-06	15828
bin	1.8512e-06	16083
bin	1.9224e-06	16041
bin	1.9936e-06	15963
bin	2.0648e-06	15884
bin	2.136e-06	15355
bin	2.2072e-06	14839
bin	2.2784e-06	14736
bin	2.3496e-06	14167
bin	2.4208e-06	13686
bin	2.492e-06	13345
bin	2.5632e-06	12991
bin	2.6344e-06	12344
bin	2.7056e-06	11873
bin	2.7768e-06	11314
bin	2.848e-06	10960
bin	2.9192e-06	10515
bin	2.9904e-06	10077
bin	3.0616e-06	9851
bin	3.1328e-06	9443
bin	3.204e-06	8997
bin	3.2752e-06	8581
bin	3.3464e-06	8260
bin	3.4176e-06	7910
bin	3.4888e-06	7457
bin	3.56e-06	7141
bin	3.6312e-06	6924
bin	3.7024e-06	6777
bin	3.7736e-06	6573
bin	3.8448e-06	6210
bin	3.916e-06	6030
bin	3.9872e-06	5823
bin	4.0584e-06	5746
bin	4.1296e-06	5568
bin	4.2008e-06	5374
bin	4.272e-06	5326
bin	4.3432e-06	5034
bin	4.4144e-06	4894
bin	4.4856e-06	4635
bin	4.5568e-06	4635
bin	4.628e-06	4667
bin	4.6992e-06	4419
bin	4.7704e-06	4366
bin	4.8416e-06	4249
bin	4.9128e-06	4159
bin	4.984e-06	4058
bin	5.0552e-06	3932
bin	5.1264e-06	3909
bin	5.1976e-06	3794
bin	5.2688e-06	3649
bin	5.34e-06	3553
bin	5.4112e-06	3614
bin	5.4824e-06	3495
bin	5.5536e-06	3377
bin	5.6248e-06	3411
bin	5.696e-06	3300
bin	5.7672e-06	3240
bin	5.8384e-06	3180
bin	5.9096e-06	3078
bin	5.9808e-06	3041
bin	6.052e-06	2950
bin	6.1232e-06	2890
bin	6.1944e-06	2762
bin	6.2656e-06	2826
bin	6.3368e-06	2744
bin	6.408e-06	2756
bin	6.4792e-06	2693
bin	6.5504e-06	2674
bin	6.6216e-06	2623
bin	6.6928e-06	2493
bin	6.764e-06	2456
bin	6.8352e-06	2450
bin	6.9064e-06	2423
bin	6.9776e-06	2486
bin	7.0488e-06	2369
bin	7.12e-06	2461
bin	7.1912e-06	2382
bin	7.2624e-06	2363
bin	7.3336e-06	2319
bin	7.4048e-06	2389
bin	7.476e-06	2325
bin	7.5472e-06	2355
bin	7.6184e-06	2295
bin	7.6896e-06	2284
bin	7.7608e-06	2445
bin	7.832e-06	2366
bin	7.9032e-06	2293
bin	7.9744e-06	2178
bin	8.0456e-06	2119
bin	8.1168e-06	2154
bin	8.188e-06	2095
bin	8.2592e-06	2167
bin	8.3304e-06	2146
bin	8.4016e-06	2092
bin	8.4728e-06	2071
bin	8.544e-06	2121
bin	8.6152e-06	2005
bin	8.6864e-06	2072
bin	8.7576e-06	2037
bin	8.8288e-06	1971
bin	8.9e-06	1991
bin	8.9712e-06	1945
bin	9.0424e-06	1883
bin	9.1136e-06	1890
bin	9.1848e-06	1892
bin	9.256e-06	1876
bin	9.3272e-06	1889
bin	9.3984e-06	1836
bin	9.4696e-06	1915
bin	9.5408e-06	1915
bin	9.612e-06	1762
bin	9.6832e-06	1871
bin	9.7544e-06	1857
bin	9.8256e-06	1756
bin	9.8968e-06	1739
bin	9.968e-06	1739
bin	1.00392e-05	1718
bin	1.01104e-05	1760
bin	1.01816e-05	1613
bin	1.02528e-05	1659
bin	1.0324e-05	1663
bin	1.03952e-05	1650
bin	1.04664e-05	1705
bin	1.05376e-05	1644
bin	1.06088e-05	1565
bin	1.068e-05	1619
bin	1.07512e-05	1566
bin	1.08224e-05	1554
bin	1.08936e-05	1521
bin	1.09648e-05	1479
bin	1.1036e-05	1496
bin	1.11072e-05	1495
bin	1.11784e-05	1465
bin	1.12496e-05	1540
bin	1.13208e-05	1474
bin	1.1392e-05	1482
bin	1.14632e-05	1496
bin	1.15344e-05	1506
bin	1.16056e-05	1461
bin	1.16768e-05	1486
bin	1.1748e-05	1415
bin	1.18192e-05	1463
bin	1.18904e-05	1486
bin	1.19616e-05	1487
bin	1.20328e-05	1504
bin	1.2104e-05	1449
bin	1.21752e-05	1443
bin	1.22464e-05	1412
bin	1.23176e-05	1445
bin	1.23888e-05	1412
bin	1.246e-05	1377
bin	1.25312e-05	1432
bin	1.26024e-05	1430
bin	1.26736e-05	1387
bin	1.27448e-05	1363
bin	1.2816e-05	1369
bin	1.28872e-05	1371
bin	1.29584e-05	1369
bin	1.30296e-05	1352
bin	1.31008e-05	1369
bin	1.3172e-05	1351
bin	1.32432e-05	1340
bin	1.33144e-05	1326
bin	1.33856e-05	1269
bin	1.34568e-05	1247
bin	1.3528e-05	1266
bin	1.35992e-05	1264
bin	1.36704e-05	1290
bin	1.37416e-05	1312
bin	1.38128e-05	1349
bin	1.3884e-05	1343
bin	1.39552e-05	1334
bin	1.40264e-05	1284
bin	1.40976e-05	1209
bin	1.41688e-05	1257
bin	1.424e-05	1164
bin	1.43112e-05	1167
bin	1.43824e-05	1177
bin	1.44536e-05	1291
bin	1.45248e-05	1305
bin	1.4596e-05	1254
bin	1.46672e-05	1241
bin	1.47384e-05	1242
bin	1.48096e-05	1208
bin	1.48808e-05	1201
bin	1.4952e-05	1175
bin	1.50232e-05	1162
bin	1.50944e-05	1173
bin	1.51656e-05	1234
bin	1.52368e-05	1244
bin	1.5308e-05	1247
bin	1.53792e-05	1245
bin	1.54504e-05	1224
bin	1.55216e-05	1209
bin	1.55928e-05	1262
bin	1.5664e-05	1233
bin	1.57352e-05	1254
bin	1.58064e-05	1195
bin	1.58776e-05	1162
bin	1.59488e-05	1189
bin	1.602e-05	1205
bin	1.60912e-05	1164
bin	1.61624e-05	1160
bin	1.62336e-05	1060
bin	1.63048e-05	1059
bin	1.6376e-05	1113
bin	1.64472e-05	1091
bin	1.65184e-05	1063
bin	1.65896e-05	1079
bin	1.66608e-05	1115
bin	1.6732e-05	1104
bin	1.68032e-05	1142
bin	1.68744e-05	1061
bin	1.69456e-05	1059
bin	1.70168e-05	1078
bin	1.7088e-05	1016
bin	1.71592e-05	1019
bin	1.72304e-05	1105
bin	1.73016e-05	1100
bin	1.73728e-05	1017
bin	1.7444e-05	1050
bin	1.75152e-05	1012
bin	1.75864e-05	1079
bin	1.76576e-05	1106
bin	1.77288e-05	1147
bin	1.78e-05	1040
bin	1.78712e-05	1082
bin	1.79424e-05	1041
bin	1.80136e-05	1000
bin	1.80848e-05	1023
bin	1.8156e-05	1015
bin	1.82272e-05	968
bin	1.82984e-05	1023
bin	1.83696e-05	1028
bin	1.84408e-05	991
bin	1.8512e-05	1047
bin	1.85832e-05	979
bin	1.86544e-05	1024
bin	1.87256e-05	1021
bin	1.87968e-05	1008
bin	1.8868e-05	986
bin	1.89392e-05	985
bin	1.90104e-05	958
bin	1.90816e-05	937
bin	1.91528e-05	916
bin	1.9224e-05	920
bin	1.92952e-05	958
bin	1.93664e-05	920
bin	1.94376e-05	941
bin	1.95088e-05	985
bin	1.958e-05	947
bin	1.96512e-05	943
bin	1.97224e-05	930
bin	1.97936e-05	944
bin	1.98648e-05	949
bin	1.9936e-05	945
bin	2.00072e-05	919
bin	2.00784e-05	957
bin	2.01496e-05	983
bin	2.02208e-05	1044
bin	2.0292e-05	1086
bin	2.03632e-05	1121
bin	2.04344e-05	1054
bin	2.05056e-05	1040
bin	2.05768e-05	1068
bin	2.0648e-05	983
bin	2.07192e-05	1010
bin	2.07904e-05	1020
bin	2.08616e-05	1015
bin	2.09328e-05	966
bin	2.1004e-05	985
bin	2.10752e-05	984
bin	2.11464e-05	1021
bin	2.12176e-05	1008
bin	2.12888e-05	1020
bin	2.136e-05	977
bin	2.14312e-05	932
bin	2.15024e-05	986
bin	2.15736e-05	934
bin	2.16448e-05	905
bin	2.1716e-05	914
bin	2.17872e-05	919
bin	2.18584e-05	907
bin	2.19296e-05	909
bin	2.20008e-05	961
bin	2.2072e-05	902
bin	2.21432e-05	867
bin	2.22144e-05	892
bin	2.22856e-05	918
bin	2.23568e-05	990
bin	2.2428e-05	920
bin	2.24992e-05	992
bin	2.25704e-05	930
bin	2.26416e-05	942
bin	2.27128e-05	919
bin	2.2784e-05	922
bin	2.28552e-05	905
bin	2.29264e-05	951
bin	2.29976e-05	959
bin	2.30688e-05	954
bin	2.314e-05	947
bin	2.32112e-05	984
bin	2.32824e-05	951
bin	2.33536e-05	957
bin	2.34248e-05	973
bin	2.3496e-05	921
bin	2.35672e-05	950
bin	2.36384e-05	947
bin	2.37096e-05	930
bin	2.37808e-05	951
bin	2.3852e-05	937
bin	2.39232e-05	957
bin	2.39944e-05	917
bin	2.40656e-05	938
bin	2.41368e-05	896
bin	2.4208e-05	898
bin	2.42792e-05	933
bin	2.43504e-05	921
bin	2.44216e-05	969
bin	2.44928e-05	957
bin	2.4564e-05	957
bin	2.46352e-05	921
bin	2.47064e-05	886
bin	2.47776e-05	945
bin	2.48488e-05	935
bin	2.492e-05	961
bin	2.49912e-05	973
bin	2.50624e-05	949
bin	2.51336e-05	974
bin	2.52048e-05	947
bin	2.5276e-05	909
bin	2.53472e-05	939
bin	2.54184e-05	963
bin	2.54896e-05	889
bin	2.55608e-05	906
bin	2.5632e-05	903
bin	2.57032e-05	891
bin	2.57744e-05	917
bin	2.58456e-05	885
bin	2.59168e-05	859
bin	2.5988e-05	847
bin	2.60592e-05	835
bin	2.61304e-05	893
bin	2.62016e-05	948
bin	2.62728e-05	942
bin	2.6344e-05	970
bin	2.64152e-05	944
bin	2.64864e-05	952
bin	2.65576e-05	896
bin	2.66288e-05	891
bin	2.67e-05	892
bin	2.67712e-05	893
bin	2.68424e-05	930
bin	2.69136e-05	917
bin	2.69848e-05	923
bin	2.7056e-05	918
bin	2.71272e-05	963
bin	2.71984e-05	967
bin	2.72696e-05	964
bin	2.73408e-05	1003
bin	2.7412e-05	976
bin	2.74832e-05	918
bin	2.75544e-05	927
bin	2.76256e-05	957
bin	2.76968e-05	943
bin	2.7768e-05	945
bin	2.78392e-05	929
bin	2.79104e-05	927
bin	2.79816e-05	906
bin	2.80528e-05	902
bin	2.8124e-05	888
bin	2.81952e-05	941
bin	2.82664e-05	918
bin	2.83376e-05	943
bin	2.84088e-05	914
bin	2.848e-05	842
bin	2.85512e-05	856
bin	2.86224e-05	799
bin	2.86936e-05	894
bin	2.87648e-05	861
bin	2.8836e-05	821
bin	2.89072e-05	934
bin	2.89784e-05	912
bin	2.90496e-05	847
bin	2.91208e-05	879
bin	2.9192e-05	862
bin	2.92632e-05	892
bin	2.93344e-05	812
bin	2.94056e-05	875
bin	2.94768e-05	906
bin	2.9548e-05	956
bin	2.96192e-05	942
bin	2.96904e-05	904
bin	2.97616e-05	937
bin	2.98328e-05	951
bin	2.9904e-05	929
bin	2.99752e-05	985
bin	3.00464e-05	973
bin	3.01176e-05	1007
bin	3.01888e-05	993
bin	3.026e-05	953
bin	3.03312e-05	992
bin	3.04024e-05	986
bin	3.04736e-05	992
bin	3.05448e-05	1035
bin	3.0616e-05	1027
bin	3.06872e-05	1015
bin	3.07584e-05	1043
bin	3.08296e-05	1027
bin	3.09008e-05	1018
bin	3.0972e-05	1056
bin	3.10432e-05	1001
bin	3.11144e-05	988
bin	3.11856e-05	958
bin	3.12568e-05	955
bin	3.1328e-05	1012
bin	3.13992e-05	1002
bin	3.14704e-05	952
bin	3.15416e-05	945
bin	3.16128e-05	934
bin	3.1684e-05	913
bin	3.17552e-05	921
bin	3.18264e-05	911
bin	3.18976e-05	924
bin	3.19688e-05	930
bin	3.204e-05	936
bin	3.21112e-05	946
bin	3.21824e-05	862
bin	3.22536e-05	882
bin	3.23248e-05	970
bin	3.2396e-05	923
bin	3.24672e-05	895
bin	3.25384e-05	922
bin	3.26096e-05	937
bin	3.26808e-05	934
bin	3.2752e-05	932
bin	3.28232e-05	934
bin	3.28944e-05	914
bin	3.29656e-05	924
bin	3.30368e-05	876
bin	3.3108e-05	909
bin	3.31792e-05	906
bin	3.32504e-05	895
bin	3.33216e-05	907
bin	3.33928e-05	860
bin	3.3464e-05	901
bin	3.35352e-05	855
bin	3.36064e-05	890
bin	3.36776e-05	851
bin	3.37488e-05	856
bin	3.382e-05	843
bin	3.38912e-05	891
bin	3.39624e-05	867
bin	3.40336e-05	873
bin	3.41048e-05	867
bin	3.4176e-05	868
bin	3.42472e-05	830
bin	3.43184e-05	862
bin	3.43896e-05	901
bin	3.44608e-05	866
bin	3.4532e-05	873
bin	3.46032e-05	958
bin	3.46744e-05	930
bin	3.47456e-05	892
bin	3.48168e-05	893
bin	3.4888e-05	904
bin	3.49592e-05	880
bin	3.50304e-05	909
bin	3.51016e-05	933
bin	3.51728e-05	902
bin	3.5244e-05	885
bin	3.53152e-05	942
bin	3.53864e-05	912
bin	3.54576e-05	917
bin	3.55288e-05	900
bin	3.56e-05	5067533
statistic Torus3d_bub.timer 	"Life Times"
field count 6291456
field mean 0.0018840106707887
field stddev 0.0012391845975332
field sum 11853.170238798
field sqrsum 31.992522035181
field min 2.06665553e-07
field max 0.00464540533333
bin	-INF	0
bin	0	6528
bin	8.544e-07	8192
bin	1.7088e-06	8496
bin	2.5632e-06	8944
bin	3.4176e-06	9425
bin	4.272e-06	10029
bin	5.1264e-06	10960
bin	5.9808e-06	11861
bin	6.8352e-06	12762
bin	7.6896e-06	13687
bin	8.544e-06	14612
bin	9.3984e-06	15826
bin	1.02528e-05	10240
bin	1.11072e-05	9479
bin	1.19616e-05	10059
bin	1.2816e-05	10802
bin	1.36704e-05	11151
bin	1.45248e-05	11854
bin	1.53792e-05	12324
bin	1.62336e-05	12931
bin	1.7088e-05	13264
bin	1.79424e-05	13603
bin	1.87968e-05	13806
bin	1.96512e-05	14283
bin	2.05056e-05	14604
bin	2.136e-05	15050
bin	2.22144e-05	15334
bin	2.30688e-05	15731
bin	2.39232e-05	16078
bin	2.47776e-05	16778
bin	2.5632e-05	16979
bin	2.64864e-05	16799
bin	2.73408e-05	16556
bin	2.81952e-05	15926
bin	2.90496e-05	15344
bin	2.9904e-05	14659
bin	3.07584e-05	13644
bin	3.16128e-05	12694
bin	3.24672e-05	11899
bin	3.33216e-05	10984
bin	3.4176e-05	9869
bin	3.50304e-05	9200
bin	3.58848e-05	8440
bin	3.67392e-05	7614
bin	3.75936e-05	7041
bin	3.8448e-05	6941
bin	3.93024e-05	6538
bin	4.01568e-05	6124
bin	4.10112e-05	6050
bin	4.18656e-05	5792
bin	4.272e-05	5517
bin	4.35744e-05	5351
bin	4.44288e-05	5253
bin	4.52832e-05	5230
bin	4.61376e-05	5208
bin	4.6992e-05	5020
bin	4.78464e-05	4989
bin	4.87008e-05	5003
bin	4.95552e-05	4964
bin	5.04096e-05	5026
bin	5.1264e-05	4865
bin	5.21184e-05	4837
bin	5.29728e-05	4609
bin	5.38272e-05	4459
bin	5.46816e-05	4379
bin	5.5536e-05	4190
bin	5.63904e-05	3926
bin	5.72448e-05	3866
bin	5.80992e-05	3677
bin	5.89536e-05	3536
bin	5.9808e-05	3455
bin	6.06624e-05	3212
bin	6.15168e-05	3168
bin	6.23712e-05	3199
bin	6.32256e-05	2960
bin	6.408e-05	2970
bin	6.49344e-05	2921
bin	6.57888e-05	2849
bin	6.66432e-05	2769
bin	6.74976e-05	2797
bin	6.8352e-05	2783
bin	6.92064e-05	2751
bin	7.00608e-05	2769
bin	7.09152e-05	2779
bin	7.17696e-05	2816
bin	7.2624e-05	2782
bin	7.34784e-05	2829
bin	7.43328e-05	2783
bin	7.51872e-05	2840
bin	7.60416e-05	2813
bin	7.6896e-05	2736
bin	7.77504e-05	2716
bin	7.86048e-05	2696
bin	7.94592e-05	2660
bin	8.03136e-05	2651
bin	8.1168e-05	2632
bin	8.20224e-05	2500
bin	8.28768e-05	2472
bin	8.37312e-05	2495
bin	8.45856e-05	2343
bin	8.544e-05	2314
bin	8.62944e-05	2185
bin	8.71488e-05	2249
bin	8.80032e-05	2168
bin	8.88576e-05	2098
bin	8.9712e-05	2073
bin	9.05664e-05	2003
bin	9.14208e-05	2039
bin	9.22752e-05	2089
bin	9.31296e-05	2132
bin	9.3984e-05	2063
bin	9.48384e-05	2068
bin	9.56928e-05	2034
bin	9.65472e-05	2051
bin	9.74016e-05	2202
bin	9.8256e-05	2197
bin	9.91104e-05	2223
bin	9.99648e-05	2288
bin	0.0001008192	2291
bin	0.0001016736	2284
bin	0.000102528	2278
bin	0.0001033824	2168
bin	0.0001042368	2144
bin	0.0001050912	2135
bin	0.0001059456	2053
bin	0.0001068	2006
bin	0.0001076544	1958
bin	0.0001085088	1920
bin	0.0001093632	1887
bin	0.0001102176	1816
bin	0.000111072	1837
bin	0.0001119264	1772
bin	0.0001127808	1752
bin	0.0001136352	1773
bin	0.0001144896	1702
bin	0.000115344	1701
bin	0.0001161984	1660
bin	0.0001170528	1584
bin	0.0001179072	1676
bin	0.0001187616	1652
bin	0.000119616	1651
bin	0.0001204704	1728
bin	0.0001213248	1652
bin	0.0001221792	1680
bin	0.0001230336	1764
bin	0.000123888	1771
bin	0.0001247424	1780
bin	0.0001255968	1778
bin	0.0001264512	1800
bin	0.0001273056	1768
bin	0.00012816	1774
bin	0.0001290144	1693
bin	0.0001298688	1675
bin	0.0001307232	1567
bin	0.0001315776	1591
bin	0.000132432	1531
bin	0.0001332864	1520
bin	0.0001341408	1500
bin	0.0001349952	1490
bin	0.0001358496	1445
bin	0.000136704	1453
bin	0.0001375584	1433
bin	0.0001384128	1390
bin	0.0001392672	1424
bin	0.0001401216	1406
bin	0.000140976	1387
bin	0.0001418304	1419
bin	0.0001426848	1388
bin	0.0001435392	1432
bin	0.0001443936	1404
bin	0.000145248	1412
bin	0.0001461024	1444
bin	0.0001469568	1493
bin	0.0001478112	1529
bin	0.0001486656	1583
bin	0.00014952	1445
bin	0.0001503744	1496
bin	0.0001512288	1612
bin	0.0001520832	1480
bin	0.0001529376	1461
bin	0.000153792	1512
bin	0.0001546464	1475
bin	0.0001555008	1490
bin	0.0001563552	1465
bin	0.0001572096	1461
bin	0.000158064	1417
bin	0.0001589184	1401
bin	0.0001597728	1349
bin	0.0001606272	1360
bin	0.0001614816	1355
bin	0.000162336	1348
bin	0.0001631904	1290
bin	0.0001640448	1274
bin	0.0001648992	1250
bin	0.0001657536	1234
bin	0.000166608	1236
bin	0.0001674624	1218
bin	0.0001683168	1236
bin	0.0001691712	1276
bin	0.0001700256	1258
bin	0.00017088	1333
bin	0.0001717344	1306
bin	0.0001725888	1248
bin	0.0001734432	1273
bin	0.0001742976	1282
bin	0.000175152	1306
bin	0.0001760064	1272
bin	0.0001768608	1265
bin	0.0001777152	1274
bin	0.0001785696	1219
bin	0.000179424	1225
bin	0.0001802784	1245
bin	0.0001811328	1208
bin	0.0001819872	1153
bin	0.0001828416	1157
bin	0.000183696	1155
bin	0.0001845504	1159
bin	0.0001854048	1131
bin	0.0001862592	1069
bin	0.0001871136	1046
bin	0.000187968	1062
bin	0.0001888224	1008
bin	0.0001896768	1044
bin	0.0001905312	1026
bin	0.0001913856	1046
bin	0.00019224	1045
bin	0.0001930944	1004
bin	0.0001939488	999
bin	0.0001948032	982
bin	0.0001956576	976
bin	0.000196512	1031
bin	0.0001973664	1075
bin	0.0001982208	1060
bin	0.0001990752	1095
bin	0.0001999296	1062
bin	0.000200784	1078
bin	0.0002016384	1105
bin	0.0002024928	1122
bin	0.0002033472	1121
bin	0.0002042016	1115
bin	0.000205056	1080
bin	0.0002059104	1080
bin	0.0002067648	1097
bin	0.0002076192	1033
bin	0.0002084736	993
bin	0.000209328	975
bin	0.0002101824	1009
bin	0.0002110368	973
bin	0.0002118912	949
bin	0.0002127456	976
bin	0.0002136	956
bin	0.0002144544	989
bin	0.0002153088	989
bin	0.0002161632	973
bin	0.0002170176	1020
bin	0.000217872	980
bin	0.0002187264	991
bin	0.0002195808	977
bin	0.0002204352	981
bin	0.0002212896	973
bin	0.000222144	1023
bin	0.0002229984	960
bin	0.0002238528	1031
bin	0.0002247072	1037
bin	0.0002255616	1068
bin	0.000226416	1075
bin	0.0002272704	997
bin	0.0002281248	1002
bin	0.0002289792	1022
bin	0.0002298336	967
bin	0.000230688	993
bin	0.0002315424	1044
bin	0.0002323968	957
bin	0.0002332512	970
bin	0.0002341056	902
bin	0.00023496	915
bin	0.0002358144	890
bin	0.0002366688	847
bin	0.0002375232	856
bin	0.0002383776	861
bin	0.000239232	831
bin	0.0002400864	840
bin	0.0002409408	898
bin	0.0002417952	879
bin	0.0002426496	886
bin	0.000243504	827
bin	0.0002443584	854
bin	0.0002452128	818
bin	0.0002460672	815
bin	0.0002469216	818
bin	0.000247776	848
bin	0.0002486304	836
bin	0.0002494848	782
bin	0.0002503392	802
bin	0.0002511936	850
bin	0.000252048	874
bin	0.0002529024	840
bin	0.0002537568	855
bin	0.0002546112	881
bin	0.0002554656	815
bin	0.00025632	819
bin	0.0002571744	782
bin	0.0002580288	757
bin	0.0002588832	739
bin	0.0002597376	754
bin	0.000260592	737
bin	0.0002614464	748
bin	0.0002623008	771
bin	0.0002631552	725
bin	0.0002640096	776
bin	0.000264864	757
bin	0.0002657184	740
bin	0.0002665728	715
bin	0.0002674272	740
bin	0.0002682816	687
bin	0.000269136	706
bin	0.0002699904	779
bin	0.0002708448	732
bin	0.0002716992	787
bin	0.0002725536	815
bin	0.000273408	795
bin	0.0002742624	768
bin	0.0002751168	773
bin	0.0002759712	801
bin	0.0002768256	822
bin	0.00027768	777
bin	0.0002785344	766
bin	0.0002793888	719
bin	0.0002802432	761
bin	0.0002810976	701
bin	0.000281952	707
bin	0.0002828064	700
bin	0.0002836608	724
bin	0.0002845152	657
bin	0.0002853696	642
bin	0.000286224	682
bin	0.0002870784	648
bin	0.0002879328	668
bin	0.0002887872	697
bin	0.0002896416	711
bin	0.000290496	664
bin	0.0002913504	679
bin	0.0002922048	726
bin	0.0002930592	724
bin	0.0002939136	747
bin	0.000294768	724
bin	0.0002956224	741
bin	0.0002964768	754
bin	0.0002973312	743
bin	0.0002981856	797
bin	0.00029904	784
bin	0.0002998944	821
bin	0.0003007488	759
bin	0.0003016032	771
bin	0.0003024576	767
bin	0.000303312	750
bin	0.0003041664	783
bin	0.0003050208	755
bin	0.0003058752	749
bin	0.0003067296	743
bin	0.000307584	722
bin	0.0003084384	751
bin	0.0003092928	777
bin	0.0003101472	716
bin	0.0003110016	723
bin	0.000311856	733
bin	0.0003127104	747
bin	0.0003135648	717
bin	0.0003144192	725
bin	0.0003152736	756
bin	0.000316128	745
bin	0.0003169824	721
bin	0.0003178368	712
bin	0.0003186912	744
bin	0.0003195456	805
bin	0.0003204	789
bin	0.0003212544	770
bin	0.0003221088	799
bin	0.0003229632	759
bin	0.0003238176	787
bin	0.000324672	785
bin	0.0003255264	779
bin	0.0003263808	759
bin	0.0003272352	721
bin	0.0003280896	761
bin	0.000328944	732
bin	0.0003297984	734
bin	0.0003306528	699
bin	0.0003315072	714
bin	0.0003323616	672
bin	0.000333216	648
bin	0.0003340704	710
bin	0.0003349248	709
bin	0.0003357792	686
bin	0.0003366336	680
bin	0.000337488	692
bin	0.0003383424	704
bin	0.0003391968	717
bin	0.0003400512	754
bin	0.0003409056	722
bin	0.00034176	728
bin	0.0003426144	695
bin	0.0003434688	762
bin	0.0003443232	771
bin	0.0003451776	772
bin	0.000346032	808
bin	0.0003468864	796
bin	0.0003477408	812
bin	0.0003485952	829
bin	0.0003494496	792
bin	0.000350304	771
bin	0.0003511584	758
bin	0.0003520128	754
bin	0.0003528672	776
bin	0.0003537216	747
bin	0.000354576	705
bin	0.0003554304	686
bin	0.0003562848	717
bin	0.0003571392	661
bin	0.0003579936	683
bin	0.000358848	682
bin	0.0003597024	667
bin	0.0003605568	667
bin	0.0003614112	712
bin	0.0003622656	714
bin	0.00036312	713
bin	0.0003639744	765
bin	0.0003648288	707
bin	0.0003656832	722
bin	0.0003665376	701
bin	0.000367392	750
bin	0.0003682464	738
bin	0.0003691008	730
bin	0.0003699552	739
bin	0.0003708096	750
bin	0.000371664	740
bin	0.0003725184	786
bin	0.0003733728	751
bin	0.0003742272	782
bin	0.0003750816	782
bin	0.000375936	779
bin	0.0003767904	768
bin	0.0003776448	787
bin	0.0003784992	705
bin	0.0003793536	725
bin	0.000380208	735
bin	0.0003810624	728
bin	0.0003819168	704
bin	0.0003827712	702
bin	0.0003836256	668
bin	0.00038448	707
bin	0.0003853344	694
bin	0.0003861888	736
bin	0.0003870432	702
bin	0.0003878976	690
bin	0.000388752	662
bin	0.0003896064	696
bin	0.0003904608	680
bin	0.0003913152	691
bin	0.0003921696	657
bin	0.000393024	697
bin	0.0003938784	728
bin	0.0003947328	724
bin	0.0003955872	771
bin	0.0003964416	760
bin	0.000397296	788
bin	0.0003981504	768
bin	0.0003990048	727
bin	0.0003998592	771
bin	0.0004007136	713
bin	0.000401568	711
bin	0.0004024224	718
bin	0.0004032768	695
bin	0.0004041312	664
bin	0.0004049856	686
bin	0.00040584	675
bin	0.0004066944	661
bin	0.0004075488	655
bin	0.0004084032	660
bin	0.0004092576	660
bin	0.000410112	684
bin	0.0004109664	666
bin	0.0004118208	670
bin	0.0004126752	633
bin	0.0004135296	666
bin	0.000414384	686
bin	0.0004152384	683
bin	0.0004160928	721
bin	0.0004169472	717
bin	0.0004178016	711
bin	0.000418656	682
bin	0.0004195104	686
bin	0.0004203648	750
bin	0.0004212192	696
bin	0.0004220736	682
bin	0.000422928	696
bin	0.0004237824	682
bin	0.0004246368	707
bin	0.0004254912	719
bin	0.0004263456	683
bin	0.0004272	5108467
