version 2
run Transposition-19-20120710-08:53:12-25275
attr alg 3
attr buf 8
attr configname Transposition
attr datetime 20120710-08:53:12
attr delta 1
attr experiment Transposition
attr ext true
attr inifile altro.ini
attr iterationvars "$buf=8, $ext=true, $ofedge=1, $delta=1, $alg=3"
attr iterationvars2 "$buf=8, $ext=true, $ofedge=1, $delta=1, $alg=3, $repetition=0"
attr measurement "$buf=8, $ext=true, $ofedge=1, $delta=1, $alg=3"
attr network Torus3d_bub
attr ofedge 1
attr processid 25275
attr repetition 0
attr replication #0
attr resultdir altro-results
attr runnumber 19
attr seedset 19

scalar . 	alg 	3
scalar . 	buf 	8
scalar . 	delta 	1
scalar . 	ofedge 	1
scalar Torus3d_bub.timer 	#endTime 	0.004853197659557
scalar Torus3d_bub.timer 	#totalHops 	84449210
scalar Torus3d_bub.timer 	#totalPacks 	6291456
scalar Torus3d_bub.timer 	#totalDerouted 	2378991
scalar Torus3d_bub.timer 	#totalOutFlanked 	1890120
scalar Torus3d_bub.timer 	#totalCQRed 	488871
scalar Torus3d_bub.timer 	#LB 	0.000786432
scalar Torus3d_bub.timer 	#ratio 	0.16204409034348
statistic Torus3d_bub.timer 	"Hop Times"
field count 6193152
field mean 0.00015820600443577
field stddev 0.00011141945592798
field sum 979.79383278338
field sqrsum 0.2318928719355
field min 3.97925925e-07
field max 0.000870945065382
bin	-INF	0
bin	0	0
bin	7.12e-08	0
bin	1.424e-07	0
bin	2.136e-07	0
bin	2.848e-07	0
bin	3.56e-07	24
bin	4.272e-07	662
bin	4.984e-07	1429
bin	5.696e-07	2149
bin	6.408e-07	2983
bin	7.12e-07	3755
bin	7.832e-07	4643
bin	8.544e-07	5356
bin	9.256e-07	5966
bin	9.968e-07	6460
bin	1.068e-06	7276
bin	1.1392e-06	7825
bin	1.2104e-06	8543
bin	1.2816e-06	9081
bin	1.3528e-06	10203
bin	1.424e-06	11246
bin	1.4952e-06	12081
bin	1.5664e-06	13040
bin	1.6376e-06	13731
bin	1.7088e-06	14069
bin	1.78e-06	14234
bin	1.8512e-06	14286
bin	1.9224e-06	14227
bin	1.9936e-06	13996
bin	2.0648e-06	13891
bin	2.136e-06	13522
bin	2.2072e-06	12911
bin	2.2784e-06	12680
bin	2.3496e-06	11869
bin	2.4208e-06	11682
bin	2.492e-06	11070
bin	2.5632e-06	10771
bin	2.6344e-06	10253
bin	2.7056e-06	9695
bin	2.7768e-06	9311
bin	2.848e-06	9109
bin	2.9192e-06	8668
bin	2.9904e-06	8185
bin	3.0616e-06	7880
bin	3.1328e-06	7391
bin	3.204e-06	7124
bin	3.2752e-06	6804
bin	3.3464e-06	6432
bin	3.4176e-06	6194
bin	3.4888e-06	5850
bin	3.56e-06	5757
bin	3.6312e-06	5438
bin	3.7024e-06	5157
bin	3.7736e-06	4970
bin	3.8448e-06	4798
bin	3.916e-06	4496
bin	3.9872e-06	4489
bin	4.0584e-06	4309
bin	4.1296e-06	4261
bin	4.2008e-06	4219
bin	4.272e-06	3957
bin	4.3432e-06	3883
bin	4.4144e-06	3669
bin	4.4856e-06	3714
bin	4.5568e-06	3657
bin	4.628e-06	3534
bin	4.6992e-06	3467
bin	4.7704e-06	3336
bin	4.8416e-06	3281
bin	4.9128e-06	3323
bin	4.984e-06	3237
bin	5.0552e-06	3240
bin	5.1264e-06	3149
bin	5.1976e-06	3051
bin	5.2688e-06	3082
bin	5.34e-06	3041
bin	5.4112e-06	2927
bin	5.4824e-06	2902
bin	5.5536e-06	2908
bin	5.6248e-06	2841
bin	5.696e-06	2843
bin	5.7672e-06	2807
bin	5.8384e-06	2657
bin	5.9096e-06	2548
bin	5.9808e-06	2594
bin	6.052e-06	2545
bin	6.1232e-06	2487
bin	6.1944e-06	2530
bin	6.2656e-06	2356
bin	6.3368e-06	2365
bin	6.408e-06	2281
bin	6.4792e-06	2228
bin	6.5504e-06	2145
bin	6.6216e-06	2129
bin	6.6928e-06	2153
bin	6.764e-06	2105
bin	6.8352e-06	2058
bin	6.9064e-06	2098
bin	6.9776e-06	2018
bin	7.0488e-06	1999
bin	7.12e-06	2104
bin	7.1912e-06	2020
bin	7.2624e-06	2007
bin	7.3336e-06	1919
bin	7.4048e-06	2032
bin	7.476e-06	1907
bin	7.5472e-06	1877
bin	7.6184e-06	1867
bin	7.6896e-06	1887
bin	7.7608e-06	1823
bin	7.832e-06	1842
bin	7.9032e-06	1871
bin	7.9744e-06	1828
bin	8.0456e-06	1756
bin	8.1168e-06	1740
bin	8.188e-06	1754
bin	8.2592e-06	1755
bin	8.3304e-06	1706
bin	8.4016e-06	1726
bin	8.4728e-06	1619
bin	8.544e-06	1570
bin	8.6152e-06	1546
bin	8.6864e-06	1561
bin	8.7576e-06	1560
bin	8.8288e-06	1513
bin	8.9e-06	1620
bin	8.9712e-06	1590
bin	9.0424e-06	1604
bin	9.1136e-06	1603
bin	9.1848e-06	1628
bin	9.256e-06	1580
bin	9.3272e-06	1666
bin	9.3984e-06	1681
bin	9.4696e-06	1695
bin	9.5408e-06	1616
bin	9.612e-06	1647
bin	9.6832e-06	1604
bin	9.7544e-06	1598
bin	9.8256e-06	1731
bin	9.8968e-06	1604
bin	9.968e-06	1618
bin	1.00392e-05	1554
bin	1.01104e-05	1643
bin	1.01816e-05	1583
bin	1.02528e-05	1581
bin	1.0324e-05	1526
bin	1.03952e-05	1524
bin	1.04664e-05	1471
bin	1.05376e-05	1479
bin	1.06088e-05	1461
bin	1.068e-05	1475
bin	1.07512e-05	1492
bin	1.08224e-05	1493
bin	1.08936e-05	1455
bin	1.09648e-05	1421
bin	1.1036e-05	1440
bin	1.11072e-05	1401
bin	1.11784e-05	1412
bin	1.12496e-05	1361
bin	1.13208e-05	1412
bin	1.1392e-05	1370
bin	1.14632e-05	1328
bin	1.15344e-05	1416
bin	1.16056e-05	1377
bin	1.16768e-05	1317
bin	1.1748e-05	1416
bin	1.18192e-05	1394
bin	1.18904e-05	1381
bin	1.19616e-05	1453
bin	1.20328e-05	1393
bin	1.2104e-05	1358
bin	1.21752e-05	1346
bin	1.22464e-05	1360
bin	1.23176e-05	1361
bin	1.23888e-05	1294
bin	1.246e-05	1307
bin	1.25312e-05	1268
bin	1.26024e-05	1283
bin	1.26736e-05	1267
bin	1.27448e-05	1294
bin	1.2816e-05	1243
bin	1.28872e-05	1257
bin	1.29584e-05	1277
bin	1.30296e-05	1238
bin	1.31008e-05	1179
bin	1.3172e-05	1216
bin	1.32432e-05	1164
bin	1.33144e-05	1227
bin	1.33856e-05	1262
bin	1.34568e-05	1211
bin	1.3528e-05	1238
bin	1.35992e-05	1209
bin	1.36704e-05	1174
bin	1.37416e-05	1152
bin	1.38128e-05	1136
bin	1.3884e-05	1178
bin	1.39552e-05	1190
bin	1.40264e-05	1186
bin	1.40976e-05	1241
bin	1.41688e-05	1211
bin	1.424e-05	1144
bin	1.43112e-05	1212
bin	1.43824e-05	1132
bin	1.44536e-05	1101
bin	1.45248e-05	1150
bin	1.4596e-05	1087
bin	1.46672e-05	1124
bin	1.47384e-05	1102
bin	1.48096e-05	1104
bin	1.48808e-05	1140
bin	1.4952e-05	1131
bin	1.50232e-05	1160
bin	1.50944e-05	1138
bin	1.51656e-05	1158
bin	1.52368e-05	1152
bin	1.5308e-05	1181
bin	1.53792e-05	1049
bin	1.54504e-05	1087
bin	1.55216e-05	1085
bin	1.55928e-05	1118
bin	1.5664e-05	1086
bin	1.57352e-05	1122
bin	1.58064e-05	1086
bin	1.58776e-05	1072
bin	1.59488e-05	1106
bin	1.602e-05	1113
bin	1.60912e-05	1098
bin	1.61624e-05	1076
bin	1.62336e-05	1094
bin	1.63048e-05	1066
bin	1.6376e-05	1040
bin	1.64472e-05	1063
bin	1.65184e-05	1068
bin	1.65896e-05	1060
bin	1.66608e-05	1067
bin	1.6732e-05	1057
bin	1.68032e-05	1007
bin	1.68744e-05	1046
bin	1.69456e-05	1052
bin	1.70168e-05	1032
bin	1.7088e-05	1066
bin	1.71592e-05	1082
bin	1.72304e-05	1054
bin	1.73016e-05	1077
bin	1.73728e-05	1036
bin	1.7444e-05	1022
bin	1.75152e-05	1039
bin	1.75864e-05	1029
bin	1.76576e-05	1040
bin	1.77288e-05	1050
bin	1.78e-05	995
bin	1.78712e-05	1055
bin	1.79424e-05	1020
bin	1.80136e-05	1014
bin	1.80848e-05	1008
bin	1.8156e-05	1055
bin	1.82272e-05	1032
bin	1.82984e-05	1062
bin	1.83696e-05	1048
bin	1.84408e-05	1036
bin	1.8512e-05	1027
bin	1.85832e-05	987
bin	1.86544e-05	994
bin	1.87256e-05	1034
bin	1.87968e-05	1003
bin	1.8868e-05	1056
bin	1.89392e-05	1012
bin	1.90104e-05	1065
bin	1.90816e-05	1019
bin	1.91528e-05	1063
bin	1.9224e-05	1035
bin	1.92952e-05	1062
bin	1.93664e-05	1013
bin	1.94376e-05	1032
bin	1.95088e-05	992
bin	1.958e-05	1019
bin	1.96512e-05	991
bin	1.97224e-05	976
bin	1.97936e-05	980
bin	1.98648e-05	997
bin	1.9936e-05	974
bin	2.00072e-05	971
bin	2.00784e-05	983
bin	2.01496e-05	1005
bin	2.02208e-05	1003
bin	2.0292e-05	1040
bin	2.03632e-05	1075
bin	2.04344e-05	1032
bin	2.05056e-05	998
bin	2.05768e-05	980
bin	2.0648e-05	1019
bin	2.07192e-05	958
bin	2.07904e-05	970
bin	2.08616e-05	967
bin	2.09328e-05	963
bin	2.1004e-05	980
bin	2.10752e-05	951
bin	2.11464e-05	929
bin	2.12176e-05	950
bin	2.12888e-05	929
bin	2.136e-05	968
bin	2.14312e-05	943
bin	2.15024e-05	927
bin	2.15736e-05	952
bin	2.16448e-05	915
bin	2.1716e-05	907
bin	2.17872e-05	857
bin	2.18584e-05	890
bin	2.19296e-05	894
bin	2.20008e-05	864
bin	2.2072e-05	893
bin	2.21432e-05	891
bin	2.22144e-05	881
bin	2.22856e-05	915
bin	2.23568e-05	967
bin	2.2428e-05	891
bin	2.24992e-05	894
bin	2.25704e-05	841
bin	2.26416e-05	929
bin	2.27128e-05	971
bin	2.2784e-05	956
bin	2.28552e-05	924
bin	2.29264e-05	935
bin	2.29976e-05	957
bin	2.30688e-05	958
bin	2.314e-05	969
bin	2.32112e-05	944
bin	2.32824e-05	914
bin	2.33536e-05	896
bin	2.34248e-05	886
bin	2.3496e-05	887
bin	2.35672e-05	818
bin	2.36384e-05	793
bin	2.37096e-05	896
bin	2.37808e-05	846
bin	2.3852e-05	895
bin	2.39232e-05	843
bin	2.39944e-05	885
bin	2.40656e-05	863
bin	2.41368e-05	872
bin	2.4208e-05	848
bin	2.42792e-05	889
bin	2.43504e-05	863
bin	2.44216e-05	894
bin	2.44928e-05	891
bin	2.4564e-05	856
bin	2.46352e-05	918
bin	2.47064e-05	957
bin	2.47776e-05	933
bin	2.48488e-05	956
bin	2.492e-05	941
bin	2.49912e-05	922
bin	2.50624e-05	919
bin	2.51336e-05	877
bin	2.52048e-05	859
bin	2.5276e-05	892
bin	2.53472e-05	834
bin	2.54184e-05	911
bin	2.54896e-05	871
bin	2.55608e-05	884
bin	2.5632e-05	889
bin	2.57032e-05	861
bin	2.57744e-05	862
bin	2.58456e-05	861
bin	2.59168e-05	827
bin	2.5988e-05	844
bin	2.60592e-05	826
bin	2.61304e-05	845
bin	2.62016e-05	819
bin	2.62728e-05	785
bin	2.6344e-05	805
bin	2.64152e-05	789
bin	2.64864e-05	782
bin	2.65576e-05	772
bin	2.66288e-05	793
bin	2.67e-05	775
bin	2.67712e-05	779
bin	2.68424e-05	793
bin	2.69136e-05	845
bin	2.69848e-05	836
bin	2.7056e-05	855
bin	2.71272e-05	770
bin	2.71984e-05	786
bin	2.72696e-05	808
bin	2.73408e-05	854
bin	2.7412e-05	815
bin	2.74832e-05	802
bin	2.75544e-05	795
bin	2.76256e-05	763
bin	2.76968e-05	757
bin	2.7768e-05	763
bin	2.78392e-05	814
bin	2.79104e-05	724
bin	2.79816e-05	752
bin	2.80528e-05	803
bin	2.8124e-05	787
bin	2.81952e-05	823
bin	2.82664e-05	840
bin	2.83376e-05	806
bin	2.84088e-05	868
bin	2.848e-05	791
bin	2.85512e-05	807
bin	2.86224e-05	774
bin	2.86936e-05	764
bin	2.87648e-05	745
bin	2.8836e-05	742
bin	2.89072e-05	704
bin	2.89784e-05	761
bin	2.90496e-05	748
bin	2.91208e-05	713
bin	2.9192e-05	757
bin	2.92632e-05	750
bin	2.93344e-05	795
bin	2.94056e-05	767
bin	2.94768e-05	760
bin	2.9548e-05	782
bin	2.96192e-05	745
bin	2.96904e-05	739
bin	2.97616e-05	749
bin	2.98328e-05	786
bin	2.9904e-05	752
bin	2.99752e-05	735
bin	3.00464e-05	726
bin	3.01176e-05	703
bin	3.01888e-05	685
bin	3.026e-05	759
bin	3.03312e-05	686
bin	3.04024e-05	697
bin	3.04736e-05	726
bin	3.05448e-05	676
bin	3.0616e-05	714
bin	3.06872e-05	692
bin	3.07584e-05	655
bin	3.08296e-05	663
bin	3.09008e-05	673
bin	3.0972e-05	736
bin	3.10432e-05	737
bin	3.11144e-05	712
bin	3.11856e-05	728
bin	3.12568e-05	734
bin	3.1328e-05	692
bin	3.13992e-05	725
bin	3.14704e-05	716
bin	3.15416e-05	682
bin	3.16128e-05	690
bin	3.1684e-05	731
bin	3.17552e-05	717
bin	3.18264e-05	725
bin	3.18976e-05	733
bin	3.19688e-05	750
bin	3.204e-05	723
bin	3.21112e-05	696
bin	3.21824e-05	705
bin	3.22536e-05	732
bin	3.23248e-05	745
bin	3.2396e-05	729
bin	3.24672e-05	737
bin	3.25384e-05	704
bin	3.26096e-05	728
bin	3.26808e-05	689
bin	3.2752e-05	683
bin	3.28232e-05	705
bin	3.28944e-05	703
bin	3.29656e-05	683
bin	3.30368e-05	674
bin	3.3108e-05	667
bin	3.31792e-05	663
bin	3.32504e-05	675
bin	3.33216e-05	650
bin	3.33928e-05	676
bin	3.3464e-05	701
bin	3.35352e-05	713
bin	3.36064e-05	757
bin	3.36776e-05	726
bin	3.37488e-05	749
bin	3.382e-05	766
bin	3.38912e-05	789
bin	3.39624e-05	759
bin	3.40336e-05	729
bin	3.41048e-05	740
bin	3.4176e-05	709
bin	3.42472e-05	788
bin	3.43184e-05	773
bin	3.43896e-05	703
bin	3.44608e-05	737
bin	3.4532e-05	729
bin	3.46032e-05	705
bin	3.46744e-05	721
bin	3.47456e-05	743
bin	3.48168e-05	723
bin	3.4888e-05	680
bin	3.49592e-05	738
bin	3.50304e-05	707
bin	3.51016e-05	672
bin	3.51728e-05	684
bin	3.5244e-05	664
bin	3.53152e-05	637
bin	3.53864e-05	720
bin	3.54576e-05	679
bin	3.55288e-05	675
bin	3.56e-05	5219978
statistic Torus3d_bub.timer 	"Life Times"
field count 6291456
field mean 0.0020407447830097
field stddev 0.001266915586142
field sum 12839.256009535
field sqrsum 36.299902497615
field min 2.06665553e-07
field max 0.004757418659615
bin	-INF	0
bin	0	6397
bin	8.544e-07	8028
bin	1.7088e-06	8348
bin	2.5632e-06	8933
bin	3.4176e-06	9536
bin	4.272e-06	10295
bin	5.1264e-06	11230
bin	5.9808e-06	12078
bin	6.8352e-06	12884
bin	7.6896e-06	13973
bin	8.544e-06	14992
bin	9.3984e-06	15765
bin	1.02528e-05	10227
bin	1.11072e-05	9258
bin	1.19616e-05	9771
bin	1.2816e-05	10392
bin	1.36704e-05	10916
bin	1.45248e-05	11507
bin	1.53792e-05	11820
bin	1.62336e-05	12055
bin	1.7088e-05	12408
bin	1.79424e-05	12532
bin	1.87968e-05	12802
bin	1.96512e-05	12930
bin	2.05056e-05	13170
bin	2.136e-05	13508
bin	2.22144e-05	13670
bin	2.30688e-05	14058
bin	2.39232e-05	14362
bin	2.47776e-05	14944
bin	2.5632e-05	15090
bin	2.64864e-05	14943
bin	2.73408e-05	14544
bin	2.81952e-05	14126
bin	2.90496e-05	13398
bin	2.9904e-05	12440
bin	3.07584e-05	11652
bin	3.16128e-05	10603
bin	3.24672e-05	9781
bin	3.33216e-05	8932
bin	3.4176e-05	8051
bin	3.50304e-05	7129
bin	3.58848e-05	6492
bin	3.67392e-05	5887
bin	3.75936e-05	5455
bin	3.8448e-05	5167
bin	3.93024e-05	4887
bin	4.01568e-05	4680
bin	4.10112e-05	4542
bin	4.18656e-05	4344
bin	4.272e-05	4276
bin	4.35744e-05	4315
bin	4.44288e-05	4263
bin	4.52832e-05	4245
bin	4.61376e-05	4299
bin	4.6992e-05	4353
bin	4.78464e-05	4380
bin	4.87008e-05	4310
bin	4.95552e-05	4325
bin	5.04096e-05	4274
bin	5.1264e-05	4289
bin	5.21184e-05	4132
bin	5.29728e-05	3981
bin	5.38272e-05	4069
bin	5.46816e-05	3762
bin	5.5536e-05	3589
bin	5.63904e-05	3418
bin	5.72448e-05	3341
bin	5.80992e-05	3106
bin	5.89536e-05	3016
bin	5.9808e-05	2935
bin	6.06624e-05	2747
bin	6.15168e-05	2636
bin	6.23712e-05	2543
bin	6.32256e-05	2512
bin	6.408e-05	2317
bin	6.49344e-05	2350
bin	6.57888e-05	2276
bin	6.66432e-05	2303
bin	6.74976e-05	2346
bin	6.8352e-05	2289
bin	6.92064e-05	2267
bin	7.00608e-05	2408
bin	7.09152e-05	2408
bin	7.17696e-05	2482
bin	7.2624e-05	2443
bin	7.34784e-05	2420
bin	7.43328e-05	2552
bin	7.51872e-05	2481
bin	7.60416e-05	2431
bin	7.6896e-05	2444
bin	7.77504e-05	2476
bin	7.86048e-05	2358
bin	7.94592e-05	2283
bin	8.03136e-05	2283
bin	8.1168e-05	2170
bin	8.20224e-05	2110
bin	8.28768e-05	2045
bin	8.37312e-05	1912
bin	8.45856e-05	1909
bin	8.544e-05	1899
bin	8.62944e-05	1867
bin	8.71488e-05	1792
bin	8.80032e-05	1795
bin	8.88576e-05	1718
bin	8.9712e-05	1763
bin	9.05664e-05	1691
bin	9.14208e-05	1729
bin	9.22752e-05	1779
bin	9.31296e-05	1744
bin	9.3984e-05	1798
bin	9.48384e-05	1834
bin	9.56928e-05	1840
bin	9.65472e-05	1851
bin	9.74016e-05	1886
bin	9.8256e-05	1902
bin	9.91104e-05	1961
bin	9.99648e-05	1916
bin	0.0001008192	1916
bin	0.0001016736	1849
bin	0.000102528	1841
bin	0.0001033824	1821
bin	0.0001042368	1791
bin	0.0001050912	1782
bin	0.0001059456	1748
bin	0.0001068	1716
bin	0.0001076544	1742
bin	0.0001085088	1668
bin	0.0001093632	1628
bin	0.0001102176	1567
bin	0.000111072	1550
bin	0.0001119264	1542
bin	0.0001127808	1503
bin	0.0001136352	1503
bin	0.0001144896	1507
bin	0.000115344	1522
bin	0.0001161984	1502
bin	0.0001170528	1539
bin	0.0001179072	1503
bin	0.0001187616	1557
bin	0.000119616	1566
bin	0.0001204704	1548
bin	0.0001213248	1479
bin	0.0001221792	1545
bin	0.0001230336	1591
bin	0.000123888	1539
bin	0.0001247424	1486
bin	0.0001255968	1557
bin	0.0001264512	1468
bin	0.0001273056	1531
bin	0.00012816	1563
bin	0.0001290144	1489
bin	0.0001298688	1544
bin	0.0001307232	1415
bin	0.0001315776	1397
bin	0.000132432	1383
bin	0.0001332864	1335
bin	0.0001341408	1381
bin	0.0001349952	1347
bin	0.0001358496	1360
bin	0.000136704	1322
bin	0.0001375584	1308
bin	0.0001384128	1323
bin	0.0001392672	1323
bin	0.0001401216	1299
bin	0.000140976	1343
bin	0.0001418304	1364
bin	0.0001426848	1351
bin	0.0001435392	1302
bin	0.0001443936	1346
bin	0.000145248	1357
bin	0.0001461024	1352
bin	0.0001469568	1351
bin	0.0001478112	1352
bin	0.0001486656	1375
bin	0.00014952	1348
bin	0.0001503744	1380
bin	0.0001512288	1338
bin	0.0001520832	1322
bin	0.0001529376	1350
bin	0.000153792	1347
bin	0.0001546464	1337
bin	0.0001555008	1315
bin	0.0001563552	1230
bin	0.0001572096	1257
bin	0.000158064	1205
bin	0.0001589184	1199
bin	0.0001597728	1263
bin	0.0001606272	1181
bin	0.0001614816	1198
bin	0.000162336	1181
bin	0.0001631904	1147
bin	0.0001640448	1167
bin	0.0001648992	1145
bin	0.0001657536	1127
bin	0.000166608	1153
bin	0.0001674624	1192
bin	0.0001683168	1146
bin	0.0001691712	1259
bin	0.0001700256	1265
bin	0.00017088	1231
bin	0.0001717344	1279
bin	0.0001725888	1323
bin	0.0001734432	1289
bin	0.0001742976	1320
bin	0.000175152	1230
bin	0.0001760064	1351
bin	0.0001768608	1222
bin	0.0001777152	1179
bin	0.0001785696	1205
bin	0.000179424	1157
bin	0.0001802784	1192
bin	0.0001811328	1153
bin	0.0001819872	1119
bin	0.0001828416	1169
bin	0.000183696	1118
bin	0.0001845504	1084
bin	0.0001854048	1064
bin	0.0001862592	1057
bin	0.0001871136	1107
bin	0.000187968	1044
bin	0.0001888224	1109
bin	0.0001896768	1088
bin	0.0001905312	1069
bin	0.0001913856	1112
bin	0.00019224	1105
bin	0.0001930944	1118
bin	0.0001939488	1077
bin	0.0001948032	1152
bin	0.0001956576	1126
bin	0.000196512	1144
bin	0.0001973664	1165
bin	0.0001982208	1090
bin	0.0001990752	1069
bin	0.0001999296	1087
bin	0.000200784	1117
bin	0.0002016384	1099
bin	0.0002024928	1108
bin	0.0002033472	1085
bin	0.0002042016	1116
bin	0.000205056	1070
bin	0.0002059104	1141
bin	0.0002067648	1088
bin	0.0002076192	1066
bin	0.0002084736	1040
bin	0.000209328	1094
bin	0.0002101824	1073
bin	0.0002110368	1032
bin	0.0002118912	1085
bin	0.0002127456	990
bin	0.0002136	1048
bin	0.0002144544	1047
bin	0.0002153088	1006
bin	0.0002161632	1019
bin	0.0002170176	1059
bin	0.000217872	1031
bin	0.0002187264	1116
bin	0.0002195808	1049
bin	0.0002204352	1032
bin	0.0002212896	1048
bin	0.000222144	1042
bin	0.0002229984	1105
bin	0.0002238528	1107
bin	0.0002247072	1118
bin	0.0002255616	1128
bin	0.000226416	1160
bin	0.0002272704	1101
bin	0.0002281248	1039
bin	0.0002289792	1029
bin	0.0002298336	1057
bin	0.000230688	1046
bin	0.0002315424	1003
bin	0.0002323968	970
bin	0.0002332512	937
bin	0.0002341056	900
bin	0.00023496	966
bin	0.0002358144	945
bin	0.0002366688	952
bin	0.0002375232	928
bin	0.0002383776	940
bin	0.000239232	986
bin	0.0002400864	1009
bin	0.0002409408	1008
bin	0.0002417952	1027
bin	0.0002426496	1027
bin	0.000243504	1000
bin	0.0002443584	963
bin	0.0002452128	1013
bin	0.0002460672	1027
bin	0.0002469216	1100
bin	0.000247776	1066
bin	0.0002486304	1072
bin	0.0002494848	1098
bin	0.0002503392	1048
bin	0.0002511936	1028
bin	0.000252048	1010
bin	0.0002529024	1021
bin	0.0002537568	1040
bin	0.0002546112	991
bin	0.0002554656	1015
bin	0.00025632	976
bin	0.0002571744	924
bin	0.0002580288	853
bin	0.0002588832	902
bin	0.0002597376	942
bin	0.000260592	917
bin	0.0002614464	868
bin	0.0002623008	891
bin	0.0002631552	849
bin	0.0002640096	873
bin	0.000264864	913
bin	0.0002657184	894
bin	0.0002665728	893
bin	0.0002674272	902
bin	0.0002682816	912
bin	0.000269136	922
bin	0.0002699904	944
bin	0.0002708448	948
bin	0.0002716992	974
bin	0.0002725536	979
bin	0.000273408	1008
bin	0.0002742624	958
bin	0.0002751168	920
bin	0.0002759712	937
bin	0.0002768256	878
bin	0.00027768	904
bin	0.0002785344	881
bin	0.0002793888	853
bin	0.0002802432	804
bin	0.0002810976	832
bin	0.000281952	821
bin	0.0002828064	838
bin	0.0002836608	827
bin	0.0002845152	802
bin	0.0002853696	806
bin	0.000286224	816
bin	0.0002870784	821
bin	0.0002879328	858
bin	0.0002887872	855
bin	0.0002896416	868
bin	0.000290496	883
bin	0.0002913504	932
bin	0.0002922048	906
bin	0.0002930592	915
bin	0.0002939136	868
bin	0.000294768	871
bin	0.0002956224	957
bin	0.0002964768	912
bin	0.0002973312	890
bin	0.0002981856	912
bin	0.00029904	907
bin	0.0002998944	866
bin	0.0003007488	885
bin	0.0003016032	814
bin	0.0003024576	849
bin	0.000303312	803
bin	0.0003041664	821
bin	0.0003050208	829
bin	0.0003058752	799
bin	0.0003067296	791
bin	0.000307584	772
bin	0.0003084384	805
bin	0.0003092928	746
bin	0.0003101472	767
bin	0.0003110016	747
bin	0.000311856	832
bin	0.0003127104	784
bin	0.0003135648	783
bin	0.0003144192	811
bin	0.0003152736	857
bin	0.000316128	861
bin	0.0003169824	823
bin	0.0003178368	856
bin	0.0003186912	856
bin	0.0003195456	854
bin	0.0003204	852
bin	0.0003212544	849
bin	0.0003221088	824
bin	0.0003229632	839
bin	0.0003238176	829
bin	0.000324672	822
bin	0.0003255264	814
bin	0.0003263808	791
bin	0.0003272352	815
bin	0.0003280896	826
bin	0.000328944	809
bin	0.0003297984	780
bin	0.0003306528	791
bin	0.0003315072	747
bin	0.0003323616	783
bin	0.000333216	748
bin	0.0003340704	801
bin	0.0003349248	770
bin	0.0003357792	791
bin	0.0003366336	758
bin	0.000337488	793
bin	0.0003383424	757
bin	0.0003391968	821
bin	0.0003400512	809
bin	0.0003409056	796
bin	0.00034176	768
bin	0.0003426144	869
bin	0.0003434688	864
bin	0.0003443232	839
bin	0.0003451776	858
bin	0.000346032	802
bin	0.0003468864	726
bin	0.0003477408	802
bin	0.0003485952	730
bin	0.0003494496	771
bin	0.000350304	711
bin	0.0003511584	757
bin	0.0003520128	716
bin	0.0003528672	700
bin	0.0003537216	731
bin	0.000354576	682
bin	0.0003554304	688
bin	0.0003562848	696
bin	0.0003571392	698
bin	0.0003579936	721
bin	0.000358848	682
bin	0.0003597024	740
bin	0.0003605568	729
bin	0.0003614112	766
bin	0.0003622656	737
bin	0.00036312	718
bin	0.0003639744	739
bin	0.0003648288	722
bin	0.0003656832	748
bin	0.0003665376	797
bin	0.000367392	759
bin	0.0003682464	735
bin	0.0003691008	768
bin	0.0003699552	734
bin	0.0003708096	791
bin	0.000371664	777
bin	0.0003725184	773
bin	0.0003733728	764
bin	0.0003742272	762
bin	0.0003750816	724
bin	0.000375936	738
bin	0.0003767904	698
bin	0.0003776448	685
bin	0.0003784992	678
bin	0.0003793536	741
bin	0.000380208	726
bin	0.0003810624	716
bin	0.0003819168	719
bin	0.0003827712	696
bin	0.0003836256	635
bin	0.00038448	697
bin	0.0003853344	680
bin	0.0003861888	711
bin	0.0003870432	734
bin	0.0003878976	679
bin	0.000388752	648
bin	0.0003896064	666
bin	0.0003904608	690
bin	0.0003913152	685
bin	0.0003921696	692
bin	0.000393024	679
bin	0.0003938784	699
bin	0.0003947328	716
bin	0.0003955872	724
bin	0.0003964416	734
bin	0.000397296	732
bin	0.0003981504	751
bin	0.0003990048	699
bin	0.0003998592	716
bin	0.0004007136	712
bin	0.000401568	664
bin	0.0004024224	641
bin	0.0004032768	652
bin	0.0004041312	666
bin	0.0004049856	630
bin	0.00040584	648
bin	0.0004066944	677
bin	0.0004075488	681
bin	0.0004084032	675
bin	0.0004092576	647
bin	0.000410112	619
bin	0.0004109664	641
bin	0.0004118208	711
bin	0.0004126752	701
bin	0.0004135296	718
bin	0.000414384	714
bin	0.0004152384	697
bin	0.0004160928	683
bin	0.0004169472	681
bin	0.0004178016	721
bin	0.000418656	679
bin	0.0004195104	738
bin	0.0004203648	715
bin	0.0004212192	687
bin	0.0004220736	670
bin	0.000422928	733
bin	0.0004237824	695
bin	0.0004246368	688
bin	0.0004254912	679
bin	0.0004263456	703
bin	0.0004272	5191088
