version 2
run Transposition-36-20120710-10:58:32-25388
attr alg 0
attr buf 8
attr configname Transposition
attr datetime 20120710-10:58:32
attr delta 1
attr experiment Transposition
attr ext true
attr inifile altro.ini
attr iterationvars "$buf=8, $ext=true, $ofedge=2, $delta=1, $alg=0"
attr iterationvars2 "$buf=8, $ext=true, $ofedge=2, $delta=1, $alg=0, $repetition=0"
attr measurement "$buf=8, $ext=true, $ofedge=2, $delta=1, $alg=0"
attr network Torus3d_bub
attr ofedge 2
attr processid 25388
attr repetition 0
attr replication #0
attr resultdir altro-results
attr runnumber 36
attr seedset 36

scalar . 	alg 	0
scalar . 	buf 	8
scalar . 	delta 	1
scalar . 	ofedge 	2
scalar Torus3d_bub.timer 	#endTime 	0.004066688333294
scalar Torus3d_bub.timer 	#totalHops 	75497472
scalar Torus3d_bub.timer 	#totalPacks 	6291456
scalar Torus3d_bub.timer 	#totalDerouted 	0
scalar Torus3d_bub.timer 	#totalOutFlanked 	0
scalar Torus3d_bub.timer 	#totalCQRed 	0
scalar Torus3d_bub.timer 	#LB 	0.000786432
scalar Torus3d_bub.timer 	#ratio 	0.19338388771067
statistic Torus3d_bub.timer 	"Hop Times"
field count 6193152
field mean 0.00010899860363178
field stddev 8.194030206917e-05
field sum 675.04492007935
field sqrsum 0.11516108927159
field min 3.9733311e-07
field max 0.000783223933333
bin	-INF	0
bin	0	0
bin	7.12e-08	0
bin	1.424e-07	0
bin	2.136e-07	0
bin	2.848e-07	0
bin	3.56e-07	44
bin	4.272e-07	826
bin	4.984e-07	1532
bin	5.696e-07	2404
bin	6.408e-07	3222
bin	7.12e-07	4012
bin	7.832e-07	4672
bin	8.544e-07	5164
bin	9.256e-07	5760
bin	9.968e-07	6288
bin	1.068e-06	6973
bin	1.1392e-06	7668
bin	1.2104e-06	8456
bin	1.2816e-06	9347
bin	1.3528e-06	10323
bin	1.424e-06	11230
bin	1.4952e-06	12043
bin	1.5664e-06	12725
bin	1.6376e-06	13306
bin	1.7088e-06	13691
bin	1.78e-06	13939
bin	1.8512e-06	14377
bin	1.9224e-06	14224
bin	1.9936e-06	14550
bin	2.0648e-06	14427
bin	2.136e-06	14222
bin	2.2072e-06	13846
bin	2.2784e-06	13722
bin	2.3496e-06	13318
bin	2.4208e-06	13008
bin	2.492e-06	12703
bin	2.5632e-06	12575
bin	2.6344e-06	12049
bin	2.7056e-06	11787
bin	2.7768e-06	11508
bin	2.848e-06	11210
bin	2.9192e-06	10830
bin	2.9904e-06	10588
bin	3.0616e-06	10384
bin	3.1328e-06	10269
bin	3.204e-06	9699
bin	3.2752e-06	9442
bin	3.3464e-06	9260
bin	3.4176e-06	8810
bin	3.4888e-06	8779
bin	3.56e-06	8322
bin	3.6312e-06	8098
bin	3.7024e-06	7866
bin	3.7736e-06	7656
bin	3.8448e-06	7538
bin	3.916e-06	7324
bin	3.9872e-06	7125
bin	4.0584e-06	7126
bin	4.1296e-06	6778
bin	4.2008e-06	6773
bin	4.272e-06	6553
bin	4.3432e-06	6370
bin	4.4144e-06	6275
bin	4.4856e-06	6225
bin	4.5568e-06	6062
bin	4.628e-06	5896
bin	4.6992e-06	5850
bin	4.7704e-06	5573
bin	4.8416e-06	5640
bin	4.9128e-06	5528
bin	4.984e-06	5387
bin	5.0552e-06	5438
bin	5.1264e-06	5477
bin	5.1976e-06	5211
bin	5.2688e-06	5143
bin	5.34e-06	5103
bin	5.4112e-06	4906
bin	5.4824e-06	4821
bin	5.5536e-06	4712
bin	5.6248e-06	4695
bin	5.696e-06	4499
bin	5.7672e-06	4519
bin	5.8384e-06	4458
bin	5.9096e-06	4421
bin	5.9808e-06	4394
bin	6.052e-06	4291
bin	6.1232e-06	4112
bin	6.1944e-06	4175
bin	6.2656e-06	4050
bin	6.3368e-06	3984
bin	6.408e-06	4072
bin	6.4792e-06	3968
bin	6.5504e-06	3889
bin	6.6216e-06	3837
bin	6.6928e-06	3872
bin	6.764e-06	3809
bin	6.8352e-06	3771
bin	6.9064e-06	3777
bin	6.9776e-06	3681
bin	7.0488e-06	3611
bin	7.12e-06	3578
bin	7.1912e-06	3604
bin	7.2624e-06	3506
bin	7.3336e-06	3432
bin	7.4048e-06	3551
bin	7.476e-06	3387
bin	7.5472e-06	3473
bin	7.6184e-06	3534
bin	7.6896e-06	3482
bin	7.7608e-06	3425
bin	7.832e-06	3397
bin	7.9032e-06	3362
bin	7.9744e-06	3440
bin	8.0456e-06	3260
bin	8.1168e-06	3252
bin	8.188e-06	3242
bin	8.2592e-06	3217
bin	8.3304e-06	3190
bin	8.4016e-06	3217
bin	8.4728e-06	3186
bin	8.544e-06	3166
bin	8.6152e-06	3143
bin	8.6864e-06	3111
bin	8.7576e-06	3075
bin	8.8288e-06	3094
bin	8.9e-06	3041
bin	8.9712e-06	2983
bin	9.0424e-06	2937
bin	9.1136e-06	2949
bin	9.1848e-06	2986
bin	9.256e-06	2898
bin	9.3272e-06	2974
bin	9.3984e-06	3008
bin	9.4696e-06	3067
bin	9.5408e-06	3057
bin	9.612e-06	2980
bin	9.6832e-06	2940
bin	9.7544e-06	2881
bin	9.8256e-06	2928
bin	9.8968e-06	2997
bin	9.968e-06	2974
bin	1.00392e-05	2871
bin	1.01104e-05	2923
bin	1.01816e-05	2929
bin	1.02528e-05	2854
bin	1.0324e-05	2806
bin	1.03952e-05	2746
bin	1.04664e-05	2819
bin	1.05376e-05	2845
bin	1.06088e-05	2827
bin	1.068e-05	2690
bin	1.07512e-05	2777
bin	1.08224e-05	2860
bin	1.08936e-05	2773
bin	1.09648e-05	2758
bin	1.1036e-05	2781
bin	1.11072e-05	2733
bin	1.11784e-05	2754
bin	1.12496e-05	2740
bin	1.13208e-05	2710
bin	1.1392e-05	2755
bin	1.14632e-05	2706
bin	1.15344e-05	2699
bin	1.16056e-05	2675
bin	1.16768e-05	2708
bin	1.1748e-05	2667
bin	1.18192e-05	2634
bin	1.18904e-05	2679
bin	1.19616e-05	2549
bin	1.20328e-05	2605
bin	1.2104e-05	2500
bin	1.21752e-05	2558
bin	1.22464e-05	2554
bin	1.23176e-05	2512
bin	1.23888e-05	2619
bin	1.246e-05	2540
bin	1.25312e-05	2423
bin	1.26024e-05	2458
bin	1.26736e-05	2515
bin	1.27448e-05	2459
bin	1.2816e-05	2383
bin	1.28872e-05	2396
bin	1.29584e-05	2434
bin	1.30296e-05	2493
bin	1.31008e-05	2367
bin	1.3172e-05	2357
bin	1.32432e-05	2352
bin	1.33144e-05	2373
bin	1.33856e-05	2353
bin	1.34568e-05	2309
bin	1.3528e-05	2309
bin	1.35992e-05	2339
bin	1.36704e-05	2237
bin	1.37416e-05	2324
bin	1.38128e-05	2220
bin	1.3884e-05	2338
bin	1.39552e-05	2211
bin	1.40264e-05	2246
bin	1.40976e-05	2237
bin	1.41688e-05	2220
bin	1.424e-05	2291
bin	1.43112e-05	2173
bin	1.43824e-05	2231
bin	1.44536e-05	2232
bin	1.45248e-05	2296
bin	1.4596e-05	2177
bin	1.46672e-05	2216
bin	1.47384e-05	2256
bin	1.48096e-05	2217
bin	1.48808e-05	2243
bin	1.4952e-05	2212
bin	1.50232e-05	2235
bin	1.50944e-05	2289
bin	1.51656e-05	2196
bin	1.52368e-05	2143
bin	1.5308e-05	2212
bin	1.53792e-05	2171
bin	1.54504e-05	2227
bin	1.55216e-05	2189
bin	1.55928e-05	2188
bin	1.5664e-05	2222
bin	1.57352e-05	2147
bin	1.58064e-05	2172
bin	1.58776e-05	2100
bin	1.59488e-05	2061
bin	1.602e-05	2108
bin	1.60912e-05	2110
bin	1.61624e-05	2075
bin	1.62336e-05	2029
bin	1.63048e-05	2073
bin	1.6376e-05	2123
bin	1.64472e-05	2115
bin	1.65184e-05	2118
bin	1.65896e-05	2073
bin	1.66608e-05	2095
bin	1.6732e-05	2037
bin	1.68032e-05	2011
bin	1.68744e-05	2010
bin	1.69456e-05	2006
bin	1.70168e-05	2008
bin	1.7088e-05	1948
bin	1.71592e-05	1935
bin	1.72304e-05	2006
bin	1.73016e-05	2045
bin	1.73728e-05	2008
bin	1.7444e-05	1887
bin	1.75152e-05	1906
bin	1.75864e-05	1975
bin	1.76576e-05	1958
bin	1.77288e-05	1930
bin	1.78e-05	1939
bin	1.78712e-05	1852
bin	1.79424e-05	1903
bin	1.80136e-05	1880
bin	1.80848e-05	1819
bin	1.8156e-05	1822
bin	1.82272e-05	1850
bin	1.82984e-05	1831
bin	1.83696e-05	1839
bin	1.84408e-05	1799
bin	1.8512e-05	1857
bin	1.85832e-05	1829
bin	1.86544e-05	1858
bin	1.87256e-05	1915
bin	1.87968e-05	1857
bin	1.8868e-05	1881
bin	1.89392e-05	1799
bin	1.90104e-05	1919
bin	1.90816e-05	1810
bin	1.91528e-05	1811
bin	1.9224e-05	1829
bin	1.92952e-05	1875
bin	1.93664e-05	1809
bin	1.94376e-05	1791
bin	1.95088e-05	1834
bin	1.958e-05	1826
bin	1.96512e-05	1810
bin	1.97224e-05	1827
bin	1.97936e-05	1792
bin	1.98648e-05	1798
bin	1.9936e-05	1837
bin	2.00072e-05	1809
bin	2.00784e-05	1849
bin	2.01496e-05	1838
bin	2.02208e-05	1848
bin	2.0292e-05	1789
bin	2.03632e-05	1895
bin	2.04344e-05	1849
bin	2.05056e-05	1855
bin	2.05768e-05	1866
bin	2.0648e-05	1765
bin	2.07192e-05	1886
bin	2.07904e-05	1813
bin	2.08616e-05	1757
bin	2.09328e-05	1914
bin	2.1004e-05	1808
bin	2.10752e-05	1785
bin	2.11464e-05	1806
bin	2.12176e-05	1774
bin	2.12888e-05	1757
bin	2.136e-05	1824
bin	2.14312e-05	1881
bin	2.15024e-05	1914
bin	2.15736e-05	1880
bin	2.16448e-05	1862
bin	2.1716e-05	1862
bin	2.17872e-05	1810
bin	2.18584e-05	1800
bin	2.19296e-05	1856
bin	2.20008e-05	1852
bin	2.2072e-05	1850
bin	2.21432e-05	1787
bin	2.22144e-05	1719
bin	2.22856e-05	1746
bin	2.23568e-05	1683
bin	2.2428e-05	1745
bin	2.24992e-05	1801
bin	2.25704e-05	1776
bin	2.26416e-05	1757
bin	2.27128e-05	1777
bin	2.2784e-05	1787
bin	2.28552e-05	1765
bin	2.29264e-05	1812
bin	2.29976e-05	1749
bin	2.30688e-05	1785
bin	2.314e-05	1684
bin	2.32112e-05	1687
bin	2.32824e-05	1745
bin	2.33536e-05	1767
bin	2.34248e-05	1709
bin	2.3496e-05	1699
bin	2.35672e-05	1733
bin	2.36384e-05	1808
bin	2.37096e-05	1693
bin	2.37808e-05	1630
bin	2.3852e-05	1644
bin	2.39232e-05	1567
bin	2.39944e-05	1610
bin	2.40656e-05	1637
bin	2.41368e-05	1659
bin	2.4208e-05	1636
bin	2.42792e-05	1575
bin	2.43504e-05	1604
bin	2.44216e-05	1604
bin	2.44928e-05	1595
bin	2.4564e-05	1632
bin	2.46352e-05	1663
bin	2.47064e-05	1638
bin	2.47776e-05	1732
bin	2.48488e-05	1732
bin	2.492e-05	1742
bin	2.49912e-05	1704
bin	2.50624e-05	1700
bin	2.51336e-05	1710
bin	2.52048e-05	1670
bin	2.5276e-05	1713
bin	2.53472e-05	1645
bin	2.54184e-05	1637
bin	2.54896e-05	1677
bin	2.55608e-05	1632
bin	2.5632e-05	1673
bin	2.57032e-05	1669
bin	2.57744e-05	1627
bin	2.58456e-05	1670
bin	2.59168e-05	1674
bin	2.5988e-05	1642
bin	2.60592e-05	1715
bin	2.61304e-05	1728
bin	2.62016e-05	1700
bin	2.62728e-05	1652
bin	2.6344e-05	1667
bin	2.64152e-05	1735
bin	2.64864e-05	1685
bin	2.65576e-05	1748
bin	2.66288e-05	1657
bin	2.67e-05	1725
bin	2.67712e-05	1663
bin	2.68424e-05	1740
bin	2.69136e-05	1723
bin	2.69848e-05	1784
bin	2.7056e-05	1751
bin	2.71272e-05	1700
bin	2.71984e-05	1674
bin	2.72696e-05	1591
bin	2.73408e-05	1614
bin	2.7412e-05	1548
bin	2.74832e-05	1647
bin	2.75544e-05	1655
bin	2.76256e-05	1638
bin	2.76968e-05	1608
bin	2.7768e-05	1602
bin	2.78392e-05	1578
bin	2.79104e-05	1597
bin	2.79816e-05	1662
bin	2.80528e-05	1603
bin	2.8124e-05	1644
bin	2.81952e-05	1596
bin	2.82664e-05	1597
bin	2.83376e-05	1568
bin	2.84088e-05	1499
bin	2.848e-05	1517
bin	2.85512e-05	1556
bin	2.86224e-05	1636
bin	2.86936e-05	1602
bin	2.87648e-05	1576
bin	2.8836e-05	1510
bin	2.89072e-05	1559
bin	2.89784e-05	1590
bin	2.90496e-05	1573
bin	2.91208e-05	1542
bin	2.9192e-05	1513
bin	2.92632e-05	1539
bin	2.93344e-05	1552
bin	2.94056e-05	1481
bin	2.94768e-05	1540
bin	2.9548e-05	1436
bin	2.96192e-05	1482
bin	2.96904e-05	1468
bin	2.97616e-05	1456
bin	2.98328e-05	1522
bin	2.9904e-05	1516
bin	2.99752e-05	1534
bin	3.00464e-05	1538
bin	3.01176e-05	1592
bin	3.01888e-05	1541
bin	3.026e-05	1500
bin	3.03312e-05	1571
bin	3.04024e-05	1572
bin	3.04736e-05	1478
bin	3.05448e-05	1529
bin	3.0616e-05	1552
bin	3.06872e-05	1531
bin	3.07584e-05	1464
bin	3.08296e-05	1560
bin	3.09008e-05	1504
bin	3.0972e-05	1527
bin	3.10432e-05	1491
bin	3.11144e-05	1509
bin	3.11856e-05	1487
bin	3.12568e-05	1502
bin	3.1328e-05	1495
bin	3.13992e-05	1495
bin	3.14704e-05	1483
bin	3.15416e-05	1558
bin	3.16128e-05	1571
bin	3.1684e-05	1570
bin	3.17552e-05	1545
bin	3.18264e-05	1662
bin	3.18976e-05	1571
bin	3.19688e-05	1637
bin	3.204e-05	1573
bin	3.21112e-05	1553
bin	3.21824e-05	1528
bin	3.22536e-05	1549
bin	3.23248e-05	1568
bin	3.2396e-05	1602
bin	3.24672e-05	1475
bin	3.25384e-05	1541
bin	3.26096e-05	1489
bin	3.26808e-05	1517
bin	3.2752e-05	1445
bin	3.28232e-05	1533
bin	3.28944e-05	1523
bin	3.29656e-05	1460
bin	3.30368e-05	1512
bin	3.3108e-05	1473
bin	3.31792e-05	1436
bin	3.32504e-05	1478
bin	3.33216e-05	1462
bin	3.33928e-05	1456
bin	3.3464e-05	1492
bin	3.35352e-05	1515
bin	3.36064e-05	1426
bin	3.36776e-05	1555
bin	3.37488e-05	1498
bin	3.382e-05	1495
bin	3.38912e-05	1459
bin	3.39624e-05	1580
bin	3.40336e-05	1531
bin	3.41048e-05	1580
bin	3.4176e-05	1504
bin	3.42472e-05	1496
bin	3.43184e-05	1576
bin	3.43896e-05	1595
bin	3.44608e-05	1610
bin	3.4532e-05	1613
bin	3.46032e-05	1586
bin	3.46744e-05	1556
bin	3.47456e-05	1550
bin	3.48168e-05	1568
bin	3.4888e-05	1525
bin	3.49592e-05	1414
bin	3.50304e-05	1472
bin	3.51016e-05	1451
bin	3.51728e-05	1471
bin	3.5244e-05	1422
bin	3.53152e-05	1448
bin	3.53864e-05	1512
bin	3.54576e-05	1415
bin	3.55288e-05	1470
bin	3.56e-05	4685265
statistic Torus3d_bub.timer 	"Life Times"
field count 6291456
field mean 0.0012900003327133
field stddev 0.00097535297602924
field sum 8115.9803332511
field sqrsum 16.454762952397
field min 2.06665553e-07
field max 0.004038571666665
bin	-INF	0
bin	0	6528
bin	8.544e-07	8192
bin	1.7088e-06	8543
bin	2.5632e-06	9098
bin	3.4176e-06	9790
bin	4.272e-06	10459
bin	5.1264e-06	11416
bin	5.9808e-06	12340
bin	6.8352e-06	13227
bin	7.6896e-06	14282
bin	8.544e-06	15298
bin	9.3984e-06	16552
bin	1.02528e-05	10967
bin	1.11072e-05	10215
bin	1.19616e-05	10874
bin	1.2816e-05	11573
bin	1.36704e-05	12051
bin	1.45248e-05	12728
bin	1.53792e-05	13285
bin	1.62336e-05	13725
bin	1.7088e-05	14038
bin	1.79424e-05	14380
bin	1.87968e-05	14599
bin	1.96512e-05	14843
bin	2.05056e-05	15193
bin	2.136e-05	15547
bin	2.22144e-05	15997
bin	2.30688e-05	16348
bin	2.39232e-05	16662
bin	2.47776e-05	16811
bin	2.5632e-05	16914
bin	2.64864e-05	16515
bin	2.73408e-05	15912
bin	2.81952e-05	15150
bin	2.90496e-05	14571
bin	2.9904e-05	13983
bin	3.07584e-05	13232
bin	3.16128e-05	12302
bin	3.24672e-05	11388
bin	3.33216e-05	10768
bin	3.4176e-05	10008
bin	3.50304e-05	9209
bin	3.58848e-05	8782
bin	3.67392e-05	8294
bin	3.75936e-05	8013
bin	3.8448e-05	7727
bin	3.93024e-05	7471
bin	4.01568e-05	7350
bin	4.10112e-05	6942
bin	4.18656e-05	6873
bin	4.272e-05	6817
bin	4.35744e-05	6612
bin	4.44288e-05	6599
bin	4.52832e-05	6453
bin	4.61376e-05	6534
bin	4.6992e-05	6404
bin	4.78464e-05	6384
bin	4.87008e-05	6279
bin	4.95552e-05	6225
bin	5.04096e-05	6160
bin	5.1264e-05	6167
bin	5.21184e-05	5973
bin	5.29728e-05	5957
bin	5.38272e-05	5724
bin	5.46816e-05	5705
bin	5.5536e-05	5517
bin	5.63904e-05	5446
bin	5.72448e-05	5343
bin	5.80992e-05	5248
bin	5.89536e-05	5254
bin	5.9808e-05	5009
bin	6.06624e-05	4970
bin	6.15168e-05	4854
bin	6.23712e-05	4720
bin	6.32256e-05	4731
bin	6.408e-05	4687
bin	6.49344e-05	4603
bin	6.57888e-05	4532
bin	6.66432e-05	4502
bin	6.74976e-05	4367
bin	6.8352e-05	4481
bin	6.92064e-05	4336
bin	7.00608e-05	4521
bin	7.09152e-05	4310
bin	7.17696e-05	4302
bin	7.2624e-05	4351
bin	7.34784e-05	4369
bin	7.43328e-05	4386
bin	7.51872e-05	4298
bin	7.60416e-05	4353
bin	7.6896e-05	4235
bin	7.77504e-05	4186
bin	7.86048e-05	4192
bin	7.94592e-05	4122
bin	8.03136e-05	4027
bin	8.1168e-05	3977
bin	8.20224e-05	3886
bin	8.28768e-05	3824
bin	8.37312e-05	3765
bin	8.45856e-05	3718
bin	8.544e-05	3573
bin	8.62944e-05	3618
bin	8.71488e-05	3502
bin	8.80032e-05	3484
bin	8.88576e-05	3504
bin	8.9712e-05	3423
bin	9.05664e-05	3514
bin	9.14208e-05	3423
bin	9.22752e-05	3454
bin	9.31296e-05	3446
bin	9.3984e-05	3387
bin	9.48384e-05	3474
bin	9.56928e-05	3431
bin	9.65472e-05	3344
bin	9.74016e-05	3392
bin	9.8256e-05	3412
bin	9.91104e-05	3439
bin	9.99648e-05	3380
bin	0.0001008192	3428
bin	0.0001016736	3412
bin	0.000102528	3279
bin	0.0001033824	3290
bin	0.0001042368	3314
bin	0.0001050912	3360
bin	0.0001059456	3197
bin	0.0001068	3233
bin	0.0001076544	3192
bin	0.0001085088	3196
bin	0.0001093632	3140
bin	0.0001102176	3104
bin	0.000111072	3045
bin	0.0001119264	3094
bin	0.0001127808	3030
bin	0.0001136352	3032
bin	0.0001144896	3022
bin	0.000115344	2876
bin	0.0001161984	2958
bin	0.0001170528	2937
bin	0.0001179072	2961
bin	0.0001187616	3014
bin	0.000119616	2941
bin	0.0001204704	2887
bin	0.0001213248	2949
bin	0.0001221792	3032
bin	0.0001230336	3002
bin	0.000123888	2925
bin	0.0001247424	2843
bin	0.0001255968	2996
bin	0.0001264512	2889
bin	0.0001273056	3031
bin	0.00012816	2964
bin	0.0001290144	2839
bin	0.0001298688	2832
bin	0.0001307232	2827
bin	0.0001315776	2798
bin	0.000132432	2734
bin	0.0001332864	2764
bin	0.0001341408	2697
bin	0.0001349952	2673
bin	0.0001358496	2698
bin	0.000136704	2654
bin	0.0001375584	2681
bin	0.0001384128	2666
bin	0.0001392672	2616
bin	0.0001401216	2640
bin	0.000140976	2594
bin	0.0001418304	2643
bin	0.0001426848	2645
bin	0.0001435392	2569
bin	0.0001443936	2623
bin	0.000145248	2591
bin	0.0001461024	2637
bin	0.0001469568	2489
bin	0.0001478112	2523
bin	0.0001486656	2705
bin	0.00014952	2698
bin	0.0001503744	2631
bin	0.0001512288	2620
bin	0.0001520832	2495
bin	0.0001529376	2517
bin	0.000153792	2492
bin	0.0001546464	2528
bin	0.0001555008	2491
bin	0.0001563552	2433
bin	0.0001572096	2381
bin	0.000158064	2439
bin	0.0001589184	2373
bin	0.0001597728	2408
bin	0.0001606272	2376
bin	0.0001614816	2367
bin	0.000162336	2330
bin	0.0001631904	2369
bin	0.0001640448	2407
bin	0.0001648992	2432
bin	0.0001657536	2339
bin	0.000166608	2374
bin	0.0001674624	2350
bin	0.0001683168	2333
bin	0.0001691712	2383
bin	0.0001700256	2394
bin	0.00017088	2322
bin	0.0001717344	2371
bin	0.0001725888	2365
bin	0.0001734432	2373
bin	0.0001742976	2330
bin	0.000175152	2292
bin	0.0001760064	2325
bin	0.0001768608	2429
bin	0.0001777152	2329
bin	0.0001785696	2445
bin	0.000179424	2428
bin	0.0001802784	2352
bin	0.0001811328	2391
bin	0.0001819872	2332
bin	0.0001828416	2190
bin	0.000183696	2277
bin	0.0001845504	2182
bin	0.0001854048	2298
bin	0.0001862592	2278
bin	0.0001871136	2246
bin	0.000187968	2270
bin	0.0001888224	2301
bin	0.0001896768	2254
bin	0.0001905312	2300
bin	0.0001913856	2247
bin	0.00019224	2247
bin	0.0001930944	2215
bin	0.0001939488	2168
bin	0.0001948032	2272
bin	0.0001956576	2335
bin	0.000196512	2233
bin	0.0001973664	2288
bin	0.0001982208	2257
bin	0.0001990752	2268
bin	0.0001999296	2274
bin	0.000200784	2280
bin	0.0002016384	2186
bin	0.0002024928	2248
bin	0.0002033472	2270
bin	0.0002042016	2236
bin	0.000205056	2160
bin	0.0002059104	2228
bin	0.0002067648	2200
bin	0.0002076192	2144
bin	0.0002084736	2186
bin	0.000209328	2177
bin	0.0002101824	1995
bin	0.0002110368	2117
bin	0.0002118912	2056
bin	0.0002127456	2087
bin	0.0002136	2084
bin	0.0002144544	2074
bin	0.0002153088	2089
bin	0.0002161632	2110
bin	0.0002170176	2111
bin	0.000217872	2157
bin	0.0002187264	2138
bin	0.0002195808	2131
bin	0.0002204352	2111
bin	0.0002212896	2134
bin	0.000222144	2106
bin	0.0002229984	2124
bin	0.0002238528	2143
bin	0.0002247072	2147
bin	0.0002255616	2121
bin	0.000226416	2069
bin	0.0002272704	2065
bin	0.0002281248	2063
bin	0.0002289792	2010
bin	0.0002298336	1982
bin	0.000230688	2059
bin	0.0002315424	2001
bin	0.0002323968	1862
bin	0.0002332512	1894
bin	0.0002341056	1811
bin	0.00023496	1800
bin	0.0002358144	1918
bin	0.0002366688	1860
bin	0.0002375232	1795
bin	0.0002383776	1845
bin	0.000239232	1771
bin	0.0002400864	1876
bin	0.0002409408	1891
bin	0.0002417952	1852
bin	0.0002426496	1890
bin	0.000243504	1875
bin	0.0002443584	1932
bin	0.0002452128	1922
bin	0.0002460672	1872
bin	0.0002469216	1935
bin	0.000247776	1936
bin	0.0002486304	1968
bin	0.0002494848	1873
bin	0.0002503392	1975
bin	0.0002511936	1903
bin	0.000252048	1971
bin	0.0002529024	1995
bin	0.0002537568	1880
bin	0.0002546112	1935
bin	0.0002554656	1880
bin	0.00025632	1853
bin	0.0002571744	1850
bin	0.0002580288	1850
bin	0.0002588832	1938
bin	0.0002597376	1872
bin	0.000260592	1859
bin	0.0002614464	1778
bin	0.0002623008	1838
bin	0.0002631552	1771
bin	0.0002640096	1834
bin	0.000264864	1849
bin	0.0002657184	1846
bin	0.0002665728	1788
bin	0.0002674272	1810
bin	0.0002682816	1833
bin	0.000269136	1874
bin	0.0002699904	1918
bin	0.0002708448	1869
bin	0.0002716992	1899
bin	0.0002725536	1943
bin	0.000273408	1937
bin	0.0002742624	1906
bin	0.0002751168	1966
bin	0.0002759712	2011
bin	0.0002768256	1898
bin	0.00027768	1914
bin	0.0002785344	1960
bin	0.0002793888	1946
bin	0.0002802432	1887
bin	0.0002810976	1894
bin	0.000281952	1842
bin	0.0002828064	1929
bin	0.0002836608	1808
bin	0.0002845152	1883
bin	0.0002853696	1837
bin	0.000286224	1843
bin	0.0002870784	1818
bin	0.0002879328	1844
bin	0.0002887872	1782
bin	0.0002896416	1833
bin	0.000290496	1746
bin	0.0002913504	1702
bin	0.0002922048	1775
bin	0.0002930592	1804
bin	0.0002939136	1735
bin	0.000294768	1841
bin	0.0002956224	1845
bin	0.0002964768	1838
bin	0.0002973312	1901
bin	0.0002981856	1891
bin	0.00029904	1908
bin	0.0002998944	1804
bin	0.0003007488	1889
bin	0.0003016032	1795
bin	0.0003024576	1808
bin	0.000303312	1841
bin	0.0003041664	1816
bin	0.0003050208	1783
bin	0.0003058752	1709
bin	0.0003067296	1707
bin	0.000307584	1750
bin	0.0003084384	1701
bin	0.0003092928	1679
bin	0.0003101472	1654
bin	0.0003110016	1557
bin	0.000311856	1556
bin	0.0003127104	1639
bin	0.0003135648	1616
bin	0.0003144192	1617
bin	0.0003152736	1576
bin	0.000316128	1609
bin	0.0003169824	1668
bin	0.0003178368	1704
bin	0.0003186912	1690
bin	0.0003195456	1733
bin	0.0003204	1739
bin	0.0003212544	1717
bin	0.0003221088	1725
bin	0.0003229632	1706
bin	0.0003238176	1724
bin	0.000324672	1696
bin	0.0003255264	1692
bin	0.0003263808	1666
bin	0.0003272352	1627
bin	0.0003280896	1576
bin	0.000328944	1574
bin	0.0003297984	1529
bin	0.0003306528	1501
bin	0.0003315072	1553
bin	0.0003323616	1522
bin	0.000333216	1491
bin	0.0003340704	1558
bin	0.0003349248	1560
bin	0.0003357792	1559
bin	0.0003366336	1627
bin	0.000337488	1549
bin	0.0003383424	1572
bin	0.0003391968	1597
bin	0.0003400512	1545
bin	0.0003409056	1623
bin	0.00034176	1614
bin	0.0003426144	1577
bin	0.0003434688	1652
bin	0.0003443232	1633
bin	0.0003451776	1672
bin	0.000346032	1671
bin	0.0003468864	1740
bin	0.0003477408	1721
bin	0.0003485952	1729
bin	0.0003494496	1688
bin	0.000350304	1735
bin	0.0003511584	1678
bin	0.0003520128	1681
bin	0.0003528672	1540
bin	0.0003537216	1592
bin	0.000354576	1584
bin	0.0003554304	1587
bin	0.0003562848	1539
bin	0.0003571392	1517
bin	0.0003579936	1569
bin	0.000358848	1484
bin	0.0003597024	1507
bin	0.0003605568	1497
bin	0.0003614112	1435
bin	0.0003622656	1543
bin	0.00036312	1508
bin	0.0003639744	1503
bin	0.0003648288	1504
bin	0.0003656832	1563
bin	0.0003665376	1516
bin	0.000367392	1499
bin	0.0003682464	1554
bin	0.0003691008	1491
bin	0.0003699552	1561
bin	0.0003708096	1589
bin	0.000371664	1581
bin	0.0003725184	1665
bin	0.0003733728	1558
bin	0.0003742272	1590
bin	0.0003750816	1522
bin	0.000375936	1449
bin	0.0003767904	1495
bin	0.0003776448	1459
bin	0.0003784992	1492
bin	0.0003793536	1400
bin	0.000380208	1458
bin	0.0003810624	1392
bin	0.0003819168	1434
bin	0.0003827712	1435
bin	0.0003836256	1460
bin	0.00038448	1382
bin	0.0003853344	1380
bin	0.0003861888	1404
bin	0.0003870432	1435
bin	0.0003878976	1374
bin	0.000388752	1455
bin	0.0003896064	1400
bin	0.0003904608	1447
bin	0.0003913152	1418
bin	0.0003921696	1444
bin	0.000393024	1425
bin	0.0003938784	1429
bin	0.0003947328	1490
bin	0.0003955872	1393
bin	0.0003964416	1458
bin	0.000397296	1538
bin	0.0003981504	1530
bin	0.0003990048	1528
bin	0.0003998592	1471
bin	0.0004007136	1498
bin	0.000401568	1534
bin	0.0004024224	1594
bin	0.0004032768	1512
bin	0.0004041312	1490
bin	0.0004049856	1471
bin	0.00040584	1465
bin	0.0004066944	1393
bin	0.0004075488	1387
bin	0.0004084032	1339
bin	0.0004092576	1435
bin	0.000410112	1404
bin	0.0004109664	1419
bin	0.0004118208	1464
bin	0.0004126752	1376
bin	0.0004135296	1489
bin	0.000414384	1381
bin	0.0004152384	1397
bin	0.0004160928	1402
bin	0.0004169472	1350
bin	0.0004178016	1349
bin	0.000418656	1422
bin	0.0004195104	1405
bin	0.0004203648	1449
bin	0.0004212192	1444
bin	0.0004220736	1427
bin	0.000422928	1402
bin	0.0004237824	1332
bin	0.0004246368	1411
bin	0.0004254912	1383
bin	0.0004263456	1378
bin	0.0004272	4606814
