version 2
run Transposition-57-20120710-13:50:12-25482
attr alg 1
attr buf 8
attr configname Transposition
attr datetime 20120710-13:50:12
attr delta 1
attr experiment Transposition
attr ext false
attr inifile altro.ini
attr iterationvars "$buf=8, $ext=false, $ofedge=1, $delta=1, $alg=1"
attr iterationvars2 "$buf=8, $ext=false, $ofedge=1, $delta=1, $alg=1, $repetition=0"
attr measurement "$buf=8, $ext=false, $ofedge=1, $delta=1, $alg=1"
attr network Torus3d_bub
attr ofedge 1
attr processid 25482
attr repetition 0
attr replication #0
attr resultdir altro-results
attr runnumber 57
attr seedset 57

scalar . 	alg 	1
scalar . 	buf 	8
scalar . 	delta 	1
scalar . 	ofedge 	1
scalar Torus3d_bub.timer 	#endTime 	0.006115849657624
scalar Torus3d_bub.timer 	#totalHops 	85726346
scalar Torus3d_bub.timer 	#totalPacks 	6291456
scalar Torus3d_bub.timer 	#totalDerouted 	2341824
scalar Torus3d_bub.timer 	#totalOutFlanked 	2341824
scalar Torus3d_bub.timer 	#totalCQRed 	0
scalar Torus3d_bub.timer 	#LB 	0.000786432
scalar Torus3d_bub.timer 	#ratio 	0.1285891648791
statistic Torus3d_bub.timer 	"Hop Times"
field count 6193152
field mean 0.00020922954935713
field stddev 0.00014600952940921
field sum 1295.7904020602
field sqrsum 0.40314808214724
field min 3.74222222e-07
field max 0.001111939131615
bin	-INF	0
bin	0	0
bin	7.12e-08	0
bin	1.424e-07	0
bin	2.136e-07	0
bin	2.848e-07	0
bin	3.56e-07	244
bin	4.272e-07	981
bin	4.984e-07	1758
bin	5.696e-07	2797
bin	6.408e-07	3497
bin	7.12e-07	4250
bin	7.832e-07	5141
bin	8.544e-07	5805
bin	9.256e-07	6246
bin	9.968e-07	6851
bin	1.068e-06	7060
bin	1.1392e-06	7748
bin	1.2104e-06	8373
bin	1.2816e-06	9282
bin	1.3528e-06	10083
bin	1.424e-06	10772
bin	1.4952e-06	11473
bin	1.5664e-06	12107
bin	1.6376e-06	12750
bin	1.7088e-06	12929
bin	1.78e-06	13009
bin	1.8512e-06	12991
bin	1.9224e-06	12933
bin	1.9936e-06	12837
bin	2.0648e-06	12331
bin	2.136e-06	11984
bin	2.2072e-06	11225
bin	2.2784e-06	11016
bin	2.3496e-06	10288
bin	2.4208e-06	9799
bin	2.492e-06	9456
bin	2.5632e-06	9013
bin	2.6344e-06	8562
bin	2.7056e-06	8102
bin	2.7768e-06	7648
bin	2.848e-06	7363
bin	2.9192e-06	7115
bin	2.9904e-06	6828
bin	3.0616e-06	6622
bin	3.1328e-06	6196
bin	3.204e-06	5895
bin	3.2752e-06	5637
bin	3.3464e-06	5273
bin	3.4176e-06	5002
bin	3.4888e-06	4955
bin	3.56e-06	4718
bin	3.6312e-06	4469
bin	3.7024e-06	4391
bin	3.7736e-06	4189
bin	3.8448e-06	3885
bin	3.916e-06	3847
bin	3.9872e-06	3666
bin	4.0584e-06	3574
bin	4.1296e-06	3454
bin	4.2008e-06	3326
bin	4.272e-06	3307
bin	4.3432e-06	3186
bin	4.4144e-06	3129
bin	4.4856e-06	3001
bin	4.5568e-06	2947
bin	4.628e-06	2918
bin	4.6992e-06	2931
bin	4.7704e-06	2812
bin	4.8416e-06	2749
bin	4.9128e-06	2629
bin	4.984e-06	2689
bin	5.0552e-06	2481
bin	5.1264e-06	2474
bin	5.1976e-06	2348
bin	5.2688e-06	2358
bin	5.34e-06	2376
bin	5.4112e-06	2296
bin	5.4824e-06	2188
bin	5.5536e-06	2173
bin	5.6248e-06	2204
bin	5.696e-06	2106
bin	5.7672e-06	2037
bin	5.8384e-06	2038
bin	5.9096e-06	1938
bin	5.9808e-06	1964
bin	6.052e-06	1926
bin	6.1232e-06	1946
bin	6.1944e-06	1836
bin	6.2656e-06	1866
bin	6.3368e-06	1755
bin	6.408e-06	1758
bin	6.4792e-06	1740
bin	6.5504e-06	1706
bin	6.6216e-06	1665
bin	6.6928e-06	1590
bin	6.764e-06	1613
bin	6.8352e-06	1610
bin	6.9064e-06	1555
bin	6.9776e-06	1602
bin	7.0488e-06	1531
bin	7.12e-06	1514
bin	7.1912e-06	1529
bin	7.2624e-06	1531
bin	7.3336e-06	1443
bin	7.4048e-06	1470
bin	7.476e-06	1507
bin	7.5472e-06	1527
bin	7.6184e-06	1448
bin	7.6896e-06	1438
bin	7.7608e-06	1419
bin	7.832e-06	1406
bin	7.9032e-06	1305
bin	7.9744e-06	1307
bin	8.0456e-06	1364
bin	8.1168e-06	1357
bin	8.188e-06	1332
bin	8.2592e-06	1349
bin	8.3304e-06	1319
bin	8.4016e-06	1344
bin	8.4728e-06	1298
bin	8.544e-06	1279
bin	8.6152e-06	1208
bin	8.6864e-06	1173
bin	8.7576e-06	1210
bin	8.8288e-06	1193
bin	8.9e-06	1142
bin	8.9712e-06	1143
bin	9.0424e-06	1162
bin	9.1136e-06	1166
bin	9.1848e-06	1232
bin	9.256e-06	1174
bin	9.3272e-06	1172
bin	9.3984e-06	1182
bin	9.4696e-06	1186
bin	9.5408e-06	1190
bin	9.612e-06	1234
bin	9.6832e-06	1170
bin	9.7544e-06	1154
bin	9.8256e-06	1177
bin	9.8968e-06	1170
bin	9.968e-06	1116
bin	1.00392e-05	1126
bin	1.01104e-05	1133
bin	1.01816e-05	1128
bin	1.02528e-05	1144
bin	1.0324e-05	1122
bin	1.03952e-05	1144
bin	1.04664e-05	1140
bin	1.05376e-05	1143
bin	1.06088e-05	1138
bin	1.068e-05	1179
bin	1.07512e-05	1176
bin	1.08224e-05	1113
bin	1.08936e-05	1175
bin	1.09648e-05	1137
bin	1.1036e-05	1098
bin	1.11072e-05	1092
bin	1.11784e-05	1042
bin	1.12496e-05	1045
bin	1.13208e-05	1024
bin	1.1392e-05	992
bin	1.14632e-05	1070
bin	1.15344e-05	1010
bin	1.16056e-05	1046
bin	1.16768e-05	1011
bin	1.1748e-05	996
bin	1.18192e-05	1026
bin	1.18904e-05	1048
bin	1.19616e-05	1032
bin	1.20328e-05	1082
bin	1.2104e-05	1001
bin	1.21752e-05	1015
bin	1.22464e-05	984
bin	1.23176e-05	970
bin	1.23888e-05	960
bin	1.246e-05	982
bin	1.25312e-05	997
bin	1.26024e-05	982
bin	1.26736e-05	969
bin	1.27448e-05	1004
bin	1.2816e-05	995
bin	1.28872e-05	1001
bin	1.29584e-05	946
bin	1.30296e-05	1007
bin	1.31008e-05	984
bin	1.3172e-05	1025
bin	1.32432e-05	979
bin	1.33144e-05	1021
bin	1.33856e-05	994
bin	1.34568e-05	991
bin	1.3528e-05	949
bin	1.35992e-05	957
bin	1.36704e-05	975
bin	1.37416e-05	982
bin	1.38128e-05	964
bin	1.3884e-05	941
bin	1.39552e-05	1010
bin	1.40264e-05	981
bin	1.40976e-05	999
bin	1.41688e-05	967
bin	1.424e-05	901
bin	1.43112e-05	950
bin	1.43824e-05	912
bin	1.44536e-05	1023
bin	1.45248e-05	1022
bin	1.4596e-05	1050
bin	1.46672e-05	1018
bin	1.47384e-05	985
bin	1.48096e-05	982
bin	1.48808e-05	994
bin	1.4952e-05	1012
bin	1.50232e-05	1012
bin	1.50944e-05	1012
bin	1.51656e-05	990
bin	1.52368e-05	963
bin	1.5308e-05	964
bin	1.53792e-05	938
bin	1.54504e-05	945
bin	1.55216e-05	926
bin	1.55928e-05	913
bin	1.5664e-05	899
bin	1.57352e-05	862
bin	1.58064e-05	864
bin	1.58776e-05	832
bin	1.59488e-05	842
bin	1.602e-05	909
bin	1.60912e-05	880
bin	1.61624e-05	948
bin	1.62336e-05	860
bin	1.63048e-05	913
bin	1.6376e-05	870
bin	1.64472e-05	926
bin	1.65184e-05	953
bin	1.65896e-05	899
bin	1.66608e-05	932
bin	1.6732e-05	947
bin	1.68032e-05	943
bin	1.68744e-05	903
bin	1.69456e-05	972
bin	1.70168e-05	912
bin	1.7088e-05	946
bin	1.71592e-05	949
bin	1.72304e-05	882
bin	1.73016e-05	899
bin	1.73728e-05	923
bin	1.7444e-05	912
bin	1.75152e-05	849
bin	1.75864e-05	898
bin	1.76576e-05	871
bin	1.77288e-05	931
bin	1.78e-05	897
bin	1.78712e-05	940
bin	1.79424e-05	934
bin	1.80136e-05	919
bin	1.80848e-05	930
bin	1.8156e-05	887
bin	1.82272e-05	883
bin	1.82984e-05	936
bin	1.83696e-05	888
bin	1.84408e-05	882
bin	1.8512e-05	903
bin	1.85832e-05	913
bin	1.86544e-05	950
bin	1.87256e-05	909
bin	1.87968e-05	876
bin	1.8868e-05	877
bin	1.89392e-05	888
bin	1.90104e-05	843
bin	1.90816e-05	852
bin	1.91528e-05	874
bin	1.9224e-05	831
bin	1.92952e-05	828
bin	1.93664e-05	824
bin	1.94376e-05	806
bin	1.95088e-05	843
bin	1.958e-05	821
bin	1.96512e-05	825
bin	1.97224e-05	773
bin	1.97936e-05	816
bin	1.98648e-05	830
bin	1.9936e-05	833
bin	2.00072e-05	801
bin	2.00784e-05	802
bin	2.01496e-05	803
bin	2.02208e-05	851
bin	2.0292e-05	792
bin	2.03632e-05	777
bin	2.04344e-05	805
bin	2.05056e-05	845
bin	2.05768e-05	782
bin	2.0648e-05	778
bin	2.07192e-05	830
bin	2.07904e-05	786
bin	2.08616e-05	783
bin	2.09328e-05	811
bin	2.1004e-05	829
bin	2.10752e-05	779
bin	2.11464e-05	787
bin	2.12176e-05	771
bin	2.12888e-05	808
bin	2.136e-05	795
bin	2.14312e-05	777
bin	2.15024e-05	779
bin	2.15736e-05	817
bin	2.16448e-05	801
bin	2.1716e-05	794
bin	2.17872e-05	749
bin	2.18584e-05	805
bin	2.19296e-05	782
bin	2.20008e-05	799
bin	2.2072e-05	833
bin	2.21432e-05	749
bin	2.22144e-05	767
bin	2.22856e-05	750
bin	2.23568e-05	747
bin	2.2428e-05	740
bin	2.24992e-05	761
bin	2.25704e-05	724
bin	2.26416e-05	735
bin	2.27128e-05	775
bin	2.2784e-05	758
bin	2.28552e-05	739
bin	2.29264e-05	722
bin	2.29976e-05	713
bin	2.30688e-05	727
bin	2.314e-05	721
bin	2.32112e-05	717
bin	2.32824e-05	674
bin	2.33536e-05	709
bin	2.34248e-05	764
bin	2.3496e-05	730
bin	2.35672e-05	697
bin	2.36384e-05	681
bin	2.37096e-05	637
bin	2.37808e-05	699
bin	2.3852e-05	646
bin	2.39232e-05	663
bin	2.39944e-05	687
bin	2.40656e-05	715
bin	2.41368e-05	714
bin	2.4208e-05	730
bin	2.42792e-05	762
bin	2.43504e-05	728
bin	2.44216e-05	772
bin	2.44928e-05	746
bin	2.4564e-05	788
bin	2.46352e-05	757
bin	2.47064e-05	780
bin	2.47776e-05	758
bin	2.48488e-05	727
bin	2.492e-05	736
bin	2.49912e-05	740
bin	2.50624e-05	704
bin	2.51336e-05	747
bin	2.52048e-05	714
bin	2.5276e-05	726
bin	2.53472e-05	707
bin	2.54184e-05	712
bin	2.54896e-05	679
bin	2.55608e-05	675
bin	2.5632e-05	709
bin	2.57032e-05	686
bin	2.57744e-05	669
bin	2.58456e-05	696
bin	2.59168e-05	716
bin	2.5988e-05	694
bin	2.60592e-05	703
bin	2.61304e-05	690
bin	2.62016e-05	675
bin	2.62728e-05	691
bin	2.6344e-05	708
bin	2.64152e-05	713
bin	2.64864e-05	689
bin	2.65576e-05	679
bin	2.66288e-05	627
bin	2.67e-05	700
bin	2.67712e-05	640
bin	2.68424e-05	685
bin	2.69136e-05	708
bin	2.69848e-05	698
bin	2.7056e-05	718
bin	2.71272e-05	668
bin	2.71984e-05	714
bin	2.72696e-05	769
bin	2.73408e-05	734
bin	2.7412e-05	754
bin	2.74832e-05	770
bin	2.75544e-05	729
bin	2.76256e-05	752
bin	2.76968e-05	723
bin	2.7768e-05	697
bin	2.78392e-05	726
bin	2.79104e-05	715
bin	2.79816e-05	729
bin	2.80528e-05	737
bin	2.8124e-05	709
bin	2.81952e-05	704
bin	2.82664e-05	653
bin	2.83376e-05	637
bin	2.84088e-05	655
bin	2.848e-05	630
bin	2.85512e-05	633
bin	2.86224e-05	611
bin	2.86936e-05	661
bin	2.87648e-05	652
bin	2.8836e-05	629
bin	2.89072e-05	673
bin	2.89784e-05	636
bin	2.90496e-05	660
bin	2.91208e-05	635
bin	2.9192e-05	687
bin	2.92632e-05	668
bin	2.93344e-05	679
bin	2.94056e-05	656
bin	2.94768e-05	680
bin	2.9548e-05	642
bin	2.96192e-05	667
bin	2.96904e-05	658
bin	2.97616e-05	607
bin	2.98328e-05	656
bin	2.9904e-05	629
bin	2.99752e-05	656
bin	3.00464e-05	642
bin	3.01176e-05	640
bin	3.01888e-05	640
bin	3.026e-05	668
bin	3.03312e-05	622
bin	3.04024e-05	646
bin	3.04736e-05	621
bin	3.05448e-05	623
bin	3.0616e-05	607
bin	3.06872e-05	619
bin	3.07584e-05	598
bin	3.08296e-05	650
bin	3.09008e-05	643
bin	3.0972e-05	649
bin	3.10432e-05	643
bin	3.11144e-05	606
bin	3.11856e-05	600
bin	3.12568e-05	608
bin	3.1328e-05	593
bin	3.13992e-05	600
bin	3.14704e-05	608
bin	3.15416e-05	651
bin	3.16128e-05	666
bin	3.1684e-05	651
bin	3.17552e-05	673
bin	3.18264e-05	663
bin	3.18976e-05	664
bin	3.19688e-05	669
bin	3.204e-05	652
bin	3.21112e-05	674
bin	3.21824e-05	624
bin	3.22536e-05	603
bin	3.23248e-05	580
bin	3.2396e-05	631
bin	3.24672e-05	595
bin	3.25384e-05	591
bin	3.26096e-05	586
bin	3.26808e-05	600
bin	3.2752e-05	609
bin	3.28232e-05	616
bin	3.28944e-05	631
bin	3.29656e-05	620
bin	3.30368e-05	624
bin	3.3108e-05	570
bin	3.31792e-05	556
bin	3.32504e-05	599
bin	3.33216e-05	579
bin	3.33928e-05	635
bin	3.3464e-05	568
bin	3.35352e-05	594
bin	3.36064e-05	590
bin	3.36776e-05	612
bin	3.37488e-05	617
bin	3.382e-05	616
bin	3.38912e-05	595
bin	3.39624e-05	594
bin	3.40336e-05	606
bin	3.41048e-05	563
bin	3.4176e-05	572
bin	3.42472e-05	583
bin	3.43184e-05	589
bin	3.43896e-05	569
bin	3.44608e-05	578
bin	3.4532e-05	545
bin	3.46032e-05	567
bin	3.46744e-05	573
bin	3.47456e-05	586
bin	3.48168e-05	602
bin	3.4888e-05	660
bin	3.49592e-05	622
bin	3.50304e-05	620
bin	3.51016e-05	590
bin	3.51728e-05	613
bin	3.5244e-05	552
bin	3.53152e-05	642
bin	3.53864e-05	643
bin	3.54576e-05	637
bin	3.55288e-05	599
bin	3.56e-05	5364886
statistic Torus3d_bub.timer 	"Life Times"
field count 6291456
field mean 0.0027192678126268
field stddev 0.0016389810435674
field sum 17108.153795358
field sqrsum 63.422128692608
field min 1.64e-07
field max 0.006062322657624
bin	-INF	0
bin	0	6544
bin	8.544e-07	8132
bin	1.7088e-06	8706
bin	2.5632e-06	9417
bin	3.4176e-06	10249
bin	4.272e-06	11137
bin	5.1264e-06	12174
bin	5.9808e-06	13131
bin	6.8352e-06	13862
bin	7.6896e-06	14777
bin	8.544e-06	15584
bin	9.3984e-06	16366
bin	1.02528e-05	10588
bin	1.11072e-05	9608
bin	1.19616e-05	10157
bin	1.2816e-05	10381
bin	1.36704e-05	10845
bin	1.45248e-05	11075
bin	1.53792e-05	11227
bin	1.62336e-05	11296
bin	1.7088e-05	11298
bin	1.79424e-05	11641
bin	1.87968e-05	11580
bin	1.96512e-05	11642
bin	2.05056e-05	11826
bin	2.136e-05	12073
bin	2.22144e-05	12032
bin	2.30688e-05	12519
bin	2.39232e-05	12975
bin	2.47776e-05	13289
bin	2.5632e-05	13050
bin	2.64864e-05	12739
bin	2.73408e-05	12161
bin	2.81952e-05	11431
bin	2.90496e-05	10668
bin	2.9904e-05	10168
bin	3.07584e-05	9400
bin	3.16128e-05	8532
bin	3.24672e-05	7596
bin	3.33216e-05	6987
bin	3.4176e-05	6124
bin	3.50304e-05	5600
bin	3.58848e-05	4822
bin	3.67392e-05	4593
bin	3.75936e-05	4223
bin	3.8448e-05	4088
bin	3.93024e-05	3840
bin	4.01568e-05	3627
bin	4.10112e-05	3527
bin	4.18656e-05	3465
bin	4.272e-05	3415
bin	4.35744e-05	3317
bin	4.44288e-05	3240
bin	4.52832e-05	3357
bin	4.61376e-05	3352
bin	4.6992e-05	3343
bin	4.78464e-05	3297
bin	4.87008e-05	3342
bin	4.95552e-05	3453
bin	5.04096e-05	3222
bin	5.1264e-05	3326
bin	5.21184e-05	3240
bin	5.29728e-05	3103
bin	5.38272e-05	2851
bin	5.46816e-05	2791
bin	5.5536e-05	2675
bin	5.63904e-05	2532
bin	5.72448e-05	2342
bin	5.80992e-05	2376
bin	5.89536e-05	2230
bin	5.9808e-05	2116
bin	6.06624e-05	2032
bin	6.15168e-05	1983
bin	6.23712e-05	1985
bin	6.32256e-05	1954
bin	6.408e-05	1898
bin	6.49344e-05	1955
bin	6.57888e-05	1933
bin	6.66432e-05	1858
bin	6.74976e-05	1903
bin	6.8352e-05	2030
bin	6.92064e-05	2041
bin	7.00608e-05	2051
bin	7.09152e-05	2025
bin	7.17696e-05	2031
bin	7.2624e-05	2073
bin	7.34784e-05	2007
bin	7.43328e-05	2058
bin	7.51872e-05	2205
bin	7.60416e-05	2127
bin	7.6896e-05	2087
bin	7.77504e-05	2088
bin	7.86048e-05	2019
bin	7.94592e-05	1976
bin	8.03136e-05	1942
bin	8.1168e-05	1906
bin	8.20224e-05	1777
bin	8.28768e-05	1711
bin	8.37312e-05	1625
bin	8.45856e-05	1536
bin	8.544e-05	1535
bin	8.62944e-05	1523
bin	8.71488e-05	1466
bin	8.80032e-05	1453
bin	8.88576e-05	1478
bin	8.9712e-05	1409
bin	9.05664e-05	1390
bin	9.14208e-05	1454
bin	9.22752e-05	1441
bin	9.31296e-05	1433
bin	9.3984e-05	1426
bin	9.48384e-05	1461
bin	9.56928e-05	1479
bin	9.65472e-05	1518
bin	9.74016e-05	1556
bin	9.8256e-05	1532
bin	9.91104e-05	1541
bin	9.99648e-05	1474
bin	0.0001008192	1554
bin	0.0001016736	1526
bin	0.000102528	1516
bin	0.0001033824	1462
bin	0.0001042368	1480
bin	0.0001050912	1448
bin	0.0001059456	1401
bin	0.0001068	1301
bin	0.0001076544	1378
bin	0.0001085088	1274
bin	0.0001093632	1215
bin	0.0001102176	1181
bin	0.000111072	1130
bin	0.0001119264	1138
bin	0.0001127808	1134
bin	0.0001136352	1083
bin	0.0001144896	1131
bin	0.000115344	1140
bin	0.0001161984	1135
bin	0.0001170528	1150
bin	0.0001179072	1215
bin	0.0001187616	1274
bin	0.000119616	1315
bin	0.0001204704	1224
bin	0.0001213248	1233
bin	0.0001221792	1276
bin	0.0001230336	1274
bin	0.000123888	1297
bin	0.0001247424	1311
bin	0.0001255968	1302
bin	0.0001264512	1233
bin	0.0001273056	1201
bin	0.00012816	1227
bin	0.0001290144	1183
bin	0.0001298688	1109
bin	0.0001307232	1156
bin	0.0001315776	1122
bin	0.000132432	1098
bin	0.0001332864	1092
bin	0.0001341408	1054
bin	0.0001349952	1089
bin	0.0001358496	1037
bin	0.000136704	1025
bin	0.0001375584	1074
bin	0.0001384128	1007
bin	0.0001392672	1035
bin	0.0001401216	1013
bin	0.000140976	992
bin	0.0001418304	1001
bin	0.0001426848	1028
bin	0.0001435392	1014
bin	0.0001443936	1020
bin	0.000145248	1037
bin	0.0001461024	1030
bin	0.0001469568	1033
bin	0.0001478112	1022
bin	0.0001486656	1047
bin	0.00014952	1071
bin	0.0001503744	1062
bin	0.0001512288	1040
bin	0.0001520832	996
bin	0.0001529376	1043
bin	0.000153792	1038
bin	0.0001546464	953
bin	0.0001555008	918
bin	0.0001563552	922
bin	0.0001572096	867
bin	0.000158064	911
bin	0.0001589184	877
bin	0.0001597728	858
bin	0.0001606272	903
bin	0.0001614816	890
bin	0.000162336	858
bin	0.0001631904	889
bin	0.0001640448	879
bin	0.0001648992	902
bin	0.0001657536	931
bin	0.000166608	920
bin	0.0001674624	920
bin	0.0001683168	920
bin	0.0001691712	898
bin	0.0001700256	883
bin	0.00017088	931
bin	0.0001717344	902
bin	0.0001725888	931
bin	0.0001734432	951
bin	0.0001742976	965
bin	0.000175152	930
bin	0.0001760064	973
bin	0.0001768608	968
bin	0.0001777152	932
bin	0.0001785696	933
bin	0.000179424	962
bin	0.0001802784	934
bin	0.0001811328	928
bin	0.0001819872	884
bin	0.0001828416	867
bin	0.000183696	871
bin	0.0001845504	834
bin	0.0001854048	851
bin	0.0001862592	889
bin	0.0001871136	854
bin	0.000187968	898
bin	0.0001888224	922
bin	0.0001896768	865
bin	0.0001905312	868
bin	0.0001913856	872
bin	0.00019224	857
bin	0.0001930944	870
bin	0.0001939488	964
bin	0.0001948032	941
bin	0.0001956576	1003
bin	0.000196512	1017
bin	0.0001973664	969
bin	0.0001982208	1009
bin	0.0001990752	925
bin	0.0001999296	935
bin	0.000200784	926
bin	0.0002016384	888
bin	0.0002024928	876
bin	0.0002033472	894
bin	0.0002042016	810
bin	0.000205056	823
bin	0.0002059104	799
bin	0.0002067648	818
bin	0.0002076192	787
bin	0.0002084736	801
bin	0.000209328	790
bin	0.0002101824	832
bin	0.0002110368	866
bin	0.0002118912	841
bin	0.0002127456	869
bin	0.0002136	816
bin	0.0002144544	835
bin	0.0002153088	816
bin	0.0002161632	857
bin	0.0002170176	904
bin	0.000217872	887
bin	0.0002187264	896
bin	0.0002195808	866
bin	0.0002204352	891
bin	0.0002212896	875
bin	0.000222144	948
bin	0.0002229984	926
bin	0.0002238528	889
bin	0.0002247072	900
bin	0.0002255616	906
bin	0.000226416	901
bin	0.0002272704	898
bin	0.0002281248	899
bin	0.0002289792	839
bin	0.0002298336	841
bin	0.000230688	816
bin	0.0002315424	834
bin	0.0002323968	813
bin	0.0002332512	821
bin	0.0002341056	776
bin	0.00023496	764
bin	0.0002358144	770
bin	0.0002366688	775
bin	0.0002375232	839
bin	0.0002383776	792
bin	0.000239232	801
bin	0.0002400864	808
bin	0.0002409408	796
bin	0.0002417952	808
bin	0.0002426496	840
bin	0.000243504	807
bin	0.0002443584	862
bin	0.0002452128	846
bin	0.0002460672	833
bin	0.0002469216	829
bin	0.000247776	881
bin	0.0002486304	820
bin	0.0002494848	833
bin	0.0002503392	784
bin	0.0002511936	838
bin	0.000252048	803
bin	0.0002529024	810
bin	0.0002537568	821
bin	0.0002546112	795
bin	0.0002554656	774
bin	0.00025632	792
bin	0.0002571744	777
bin	0.0002580288	785
bin	0.0002588832	771
bin	0.0002597376	752
bin	0.000260592	758
bin	0.0002614464	723
bin	0.0002623008	772
bin	0.0002631552	765
bin	0.0002640096	753
bin	0.000264864	768
bin	0.0002657184	758
bin	0.0002665728	767
bin	0.0002674272	748
bin	0.0002682816	805
bin	0.000269136	821
bin	0.0002699904	818
bin	0.0002708448	835
bin	0.0002716992	833
bin	0.0002725536	861
bin	0.000273408	889
bin	0.0002742624	849
bin	0.0002751168	819
bin	0.0002759712	799
bin	0.0002768256	798
bin	0.00027768	791
bin	0.0002785344	836
bin	0.0002793888	820
bin	0.0002802432	776
bin	0.0002810976	782
bin	0.000281952	761
bin	0.0002828064	747
bin	0.0002836608	773
bin	0.0002845152	776
bin	0.0002853696	776
bin	0.000286224	782
bin	0.0002870784	755
bin	0.0002879328	749
bin	0.0002887872	806
bin	0.0002896416	797
bin	0.000290496	787
bin	0.0002913504	827
bin	0.0002922048	811
bin	0.0002930592	784
bin	0.0002939136	785
bin	0.000294768	817
bin	0.0002956224	799
bin	0.0002964768	772
bin	0.0002973312	806
bin	0.0002981856	796
bin	0.00029904	780
bin	0.0002998944	794
bin	0.0003007488	754
bin	0.0003016032	762
bin	0.0003024576	744
bin	0.000303312	701
bin	0.0003041664	761
bin	0.0003050208	735
bin	0.0003058752	719
bin	0.0003067296	700
bin	0.000307584	657
bin	0.0003084384	651
bin	0.0003092928	683
bin	0.0003101472	664
bin	0.0003110016	679
bin	0.000311856	686
bin	0.0003127104	674
bin	0.0003135648	675
bin	0.0003144192	710
bin	0.0003152736	691
bin	0.000316128	700
bin	0.0003169824	703
bin	0.0003178368	732
bin	0.0003186912	722
bin	0.0003195456	758
bin	0.0003204	736
bin	0.0003212544	722
bin	0.0003221088	720
bin	0.0003229632	705
bin	0.0003238176	733
bin	0.000324672	701
bin	0.0003255264	677
bin	0.0003263808	703
bin	0.0003272352	704
bin	0.0003280896	676
bin	0.000328944	666
bin	0.0003297984	616
bin	0.0003306528	682
bin	0.0003315072	654
bin	0.0003323616	613
bin	0.000333216	644
bin	0.0003340704	622
bin	0.0003349248	578
bin	0.0003357792	627
bin	0.0003366336	667
bin	0.000337488	637
bin	0.0003383424	645
bin	0.0003391968	638
bin	0.0003400512	670
bin	0.0003409056	673
bin	0.00034176	631
bin	0.0003426144	620
bin	0.0003434688	633
bin	0.0003443232	602
bin	0.0003451776	629
bin	0.000346032	636
bin	0.0003468864	681
bin	0.0003477408	664
bin	0.0003485952	688
bin	0.0003494496	693
bin	0.000350304	666
bin	0.0003511584	630
bin	0.0003520128	613
bin	0.0003528672	608
bin	0.0003537216	577
bin	0.000354576	558
bin	0.0003554304	567
bin	0.0003562848	602
bin	0.0003571392	562
bin	0.0003579936	613
bin	0.000358848	575
bin	0.0003597024	598
bin	0.0003605568	597
bin	0.0003614112	598
bin	0.0003622656	578
bin	0.00036312	627
bin	0.0003639744	586
bin	0.0003648288	623
bin	0.0003656832	592
bin	0.0003665376	627
bin	0.000367392	627
bin	0.0003682464	594
bin	0.0003691008	595
bin	0.0003699552	603
bin	0.0003708096	626
bin	0.000371664	614
bin	0.0003725184	611
bin	0.0003733728	610
bin	0.0003742272	617
bin	0.0003750816	617
bin	0.000375936	619
bin	0.0003767904	571
bin	0.0003776448	567
bin	0.0003784992	584
bin	0.0003793536	591
bin	0.000380208	616
bin	0.0003810624	616
bin	0.0003819168	576
bin	0.0003827712	594
bin	0.0003836256	627
bin	0.00038448	626
bin	0.0003853344	651
bin	0.0003861888	668
bin	0.0003870432	590
bin	0.0003878976	602
bin	0.000388752	628
bin	0.0003896064	655
bin	0.0003904608	645
bin	0.0003913152	622
bin	0.0003921696	581
bin	0.000393024	597
bin	0.0003938784	641
bin	0.0003947328	667
bin	0.0003955872	626
bin	0.0003964416	613
bin	0.000397296	635
bin	0.0003981504	631
bin	0.0003990048	639
bin	0.0003998592	657
bin	0.0004007136	665
bin	0.000401568	615
bin	0.0004024224	651
bin	0.0004032768	608
bin	0.0004041312	623
bin	0.0004049856	591
bin	0.00040584	563
bin	0.0004066944	566
bin	0.0004075488	554
bin	0.0004084032	551
bin	0.0004092576	582
bin	0.000410112	608
bin	0.0004109664	568
bin	0.0004118208	568
bin	0.0004126752	582
bin	0.0004135296	596
bin	0.000414384	582
bin	0.0004152384	633
bin	0.0004160928	593
bin	0.0004169472	596
bin	0.0004178016	644
bin	0.000418656	638
bin	0.0004195104	624
bin	0.0004203648	597
bin	0.0004212192	592
bin	0.0004220736	596
bin	0.000422928	595
bin	0.0004237824	543
bin	0.0004246368	567
bin	0.0004254912	576
bin	0.0004263456	552
bin	0.0004272	5339736
