version 2
run Transposition-16-20120710-08:23:52-25270
attr alg 0
attr buf 8
attr configname Transposition
attr datetime 20120710-08:23:52
attr delta 1
attr experiment Transposition
attr ext true
attr inifile altro.ini
attr iterationvars "$buf=8, $ext=true, $ofedge=1, $delta=1, $alg=0"
attr iterationvars2 "$buf=8, $ext=true, $ofedge=1, $delta=1, $alg=0, $repetition=0"
attr measurement "$buf=8, $ext=true, $ofedge=1, $delta=1, $alg=0"
attr network Torus3d_bub
attr ofedge 1
attr processid 25270
attr repetition 0
attr replication #0
attr resultdir altro-results
attr runnumber 16
attr seedset 16

scalar . 	alg 	0
scalar . 	buf 	8
scalar . 	delta 	1
scalar . 	ofedge 	1
scalar Torus3d_bub.timer 	#endTime 	0.003980619333332
scalar Torus3d_bub.timer 	#totalHops 	75497472
scalar Torus3d_bub.timer 	#totalPacks 	6291456
scalar Torus3d_bub.timer 	#totalDerouted 	0
scalar Torus3d_bub.timer 	#totalOutFlanked 	0
scalar Torus3d_bub.timer 	#totalCQRed 	0
scalar Torus3d_bub.timer 	#LB 	0.000786432
scalar Torus3d_bub.timer 	#ratio 	0.19756523649844
statistic Torus3d_bub.timer 	"Hop Times"
field count 6193152
field mean 0.00010971392185366
field stddev 8.3482346918826e-05
field sum 679.47499455581
field sqrsum 0.11770980763498
field min 3.97333149e-07
field max 0.000779196399992
bin	-INF	0
bin	0	0
bin	7.12e-08	0
bin	1.424e-07	0
bin	2.136e-07	0
bin	2.848e-07	0
bin	3.56e-07	39
bin	4.272e-07	745
bin	4.984e-07	1478
bin	5.696e-07	2322
bin	6.408e-07	3159
bin	7.12e-07	3887
bin	7.832e-07	4645
bin	8.544e-07	4941
bin	9.256e-07	5697
bin	9.968e-07	6420
bin	1.068e-06	7022
bin	1.1392e-06	7666
bin	1.2104e-06	8601
bin	1.2816e-06	9379
bin	1.3528e-06	10443
bin	1.424e-06	11129
bin	1.4952e-06	12243
bin	1.5664e-06	12998
bin	1.6376e-06	13422
bin	1.7088e-06	13738
bin	1.78e-06	14248
bin	1.8512e-06	14463
bin	1.9224e-06	14680
bin	1.9936e-06	14584
bin	2.0648e-06	14556
bin	2.136e-06	14546
bin	2.2072e-06	13974
bin	2.2784e-06	13919
bin	2.3496e-06	13499
bin	2.4208e-06	13154
bin	2.492e-06	12539
bin	2.5632e-06	12373
bin	2.6344e-06	11995
bin	2.7056e-06	11675
bin	2.7768e-06	11187
bin	2.848e-06	11059
bin	2.9192e-06	10789
bin	2.9904e-06	10540
bin	3.0616e-06	10215
bin	3.1328e-06	9825
bin	3.204e-06	9519
bin	3.2752e-06	9272
bin	3.3464e-06	9058
bin	3.4176e-06	8687
bin	3.4888e-06	8456
bin	3.56e-06	8138
bin	3.6312e-06	7779
bin	3.7024e-06	7619
bin	3.7736e-06	7495
bin	3.8448e-06	7264
bin	3.916e-06	7055
bin	3.9872e-06	7019
bin	4.0584e-06	6736
bin	4.1296e-06	6653
bin	4.2008e-06	6399
bin	4.272e-06	6366
bin	4.3432e-06	6201
bin	4.4144e-06	5924
bin	4.4856e-06	5923
bin	4.5568e-06	5789
bin	4.628e-06	5651
bin	4.6992e-06	5651
bin	4.7704e-06	5546
bin	4.8416e-06	5453
bin	4.9128e-06	5398
bin	4.984e-06	5199
bin	5.0552e-06	5304
bin	5.1264e-06	5143
bin	5.1976e-06	5145
bin	5.2688e-06	5004
bin	5.34e-06	4964
bin	5.4112e-06	4910
bin	5.4824e-06	4707
bin	5.5536e-06	4694
bin	5.6248e-06	4745
bin	5.696e-06	4551
bin	5.7672e-06	4507
bin	5.8384e-06	4467
bin	5.9096e-06	4382
bin	5.9808e-06	4277
bin	6.052e-06	4258
bin	6.1232e-06	4217
bin	6.1944e-06	4113
bin	6.2656e-06	3964
bin	6.3368e-06	3972
bin	6.408e-06	3893
bin	6.4792e-06	3811
bin	6.5504e-06	3867
bin	6.6216e-06	3844
bin	6.6928e-06	3813
bin	6.764e-06	3701
bin	6.8352e-06	3664
bin	6.9064e-06	3608
bin	6.9776e-06	3637
bin	7.0488e-06	3598
bin	7.12e-06	3527
bin	7.1912e-06	3571
bin	7.2624e-06	3390
bin	7.3336e-06	3504
bin	7.4048e-06	3496
bin	7.476e-06	3465
bin	7.5472e-06	3458
bin	7.6184e-06	3463
bin	7.6896e-06	3486
bin	7.7608e-06	3447
bin	7.832e-06	3311
bin	7.9032e-06	3300
bin	7.9744e-06	3322
bin	8.0456e-06	3326
bin	8.1168e-06	3199
bin	8.188e-06	3284
bin	8.2592e-06	3151
bin	8.3304e-06	3158
bin	8.4016e-06	3154
bin	8.4728e-06	3097
bin	8.544e-06	3050
bin	8.6152e-06	3102
bin	8.6864e-06	3210
bin	8.7576e-06	3042
bin	8.8288e-06	3119
bin	8.9e-06	3034
bin	8.9712e-06	3033
bin	9.0424e-06	2952
bin	9.1136e-06	3005
bin	9.1848e-06	2994
bin	9.256e-06	2942
bin	9.3272e-06	3055
bin	9.3984e-06	3016
bin	9.4696e-06	3015
bin	9.5408e-06	3057
bin	9.612e-06	3057
bin	9.6832e-06	3050
bin	9.7544e-06	3058
bin	9.8256e-06	2964
bin	9.8968e-06	2972
bin	9.968e-06	2952
bin	1.00392e-05	2821
bin	1.01104e-05	2884
bin	1.01816e-05	2893
bin	1.02528e-05	2866
bin	1.0324e-05	2803
bin	1.03952e-05	2795
bin	1.04664e-05	2814
bin	1.05376e-05	2786
bin	1.06088e-05	2754
bin	1.068e-05	2678
bin	1.07512e-05	2781
bin	1.08224e-05	2745
bin	1.08936e-05	2793
bin	1.09648e-05	2797
bin	1.1036e-05	2714
bin	1.11072e-05	2696
bin	1.11784e-05	2612
bin	1.12496e-05	2580
bin	1.13208e-05	2615
bin	1.1392e-05	2620
bin	1.14632e-05	2613
bin	1.15344e-05	2530
bin	1.16056e-05	2456
bin	1.16768e-05	2558
bin	1.1748e-05	2527
bin	1.18192e-05	2624
bin	1.18904e-05	2588
bin	1.19616e-05	2471
bin	1.20328e-05	2518
bin	1.2104e-05	2484
bin	1.21752e-05	2431
bin	1.22464e-05	2499
bin	1.23176e-05	2435
bin	1.23888e-05	2440
bin	1.246e-05	2422
bin	1.25312e-05	2337
bin	1.26024e-05	2397
bin	1.26736e-05	2466
bin	1.27448e-05	2432
bin	1.2816e-05	2458
bin	1.28872e-05	2309
bin	1.29584e-05	2416
bin	1.30296e-05	2472
bin	1.31008e-05	2400
bin	1.3172e-05	2385
bin	1.32432e-05	2347
bin	1.33144e-05	2366
bin	1.33856e-05	2308
bin	1.34568e-05	2279
bin	1.3528e-05	2322
bin	1.35992e-05	2330
bin	1.36704e-05	2286
bin	1.37416e-05	2258
bin	1.38128e-05	2284
bin	1.3884e-05	2326
bin	1.39552e-05	2273
bin	1.40264e-05	2194
bin	1.40976e-05	2310
bin	1.41688e-05	2218
bin	1.424e-05	2196
bin	1.43112e-05	2225
bin	1.43824e-05	2260
bin	1.44536e-05	2234
bin	1.45248e-05	2248
bin	1.4596e-05	2193
bin	1.46672e-05	2273
bin	1.47384e-05	2208
bin	1.48096e-05	2264
bin	1.48808e-05	2189
bin	1.4952e-05	2235
bin	1.50232e-05	2214
bin	1.50944e-05	2293
bin	1.51656e-05	2262
bin	1.52368e-05	2170
bin	1.5308e-05	2286
bin	1.53792e-05	2223
bin	1.54504e-05	2207
bin	1.55216e-05	2206
bin	1.55928e-05	2088
bin	1.5664e-05	2226
bin	1.57352e-05	2157
bin	1.58064e-05	2121
bin	1.58776e-05	2176
bin	1.59488e-05	2103
bin	1.602e-05	2078
bin	1.60912e-05	2038
bin	1.61624e-05	2094
bin	1.62336e-05	2041
bin	1.63048e-05	2014
bin	1.6376e-05	2036
bin	1.64472e-05	2056
bin	1.65184e-05	1884
bin	1.65896e-05	1928
bin	1.66608e-05	1938
bin	1.6732e-05	2029
bin	1.68032e-05	1941
bin	1.68744e-05	2021
bin	1.69456e-05	1896
bin	1.70168e-05	1995
bin	1.7088e-05	2030
bin	1.71592e-05	1967
bin	1.72304e-05	2064
bin	1.73016e-05	2005
bin	1.73728e-05	2037
bin	1.7444e-05	2025
bin	1.75152e-05	1973
bin	1.75864e-05	1928
bin	1.76576e-05	1957
bin	1.77288e-05	1954
bin	1.78e-05	1869
bin	1.78712e-05	1881
bin	1.79424e-05	1805
bin	1.80136e-05	1795
bin	1.80848e-05	1854
bin	1.8156e-05	1877
bin	1.82272e-05	1860
bin	1.82984e-05	1877
bin	1.83696e-05	1926
bin	1.84408e-05	1914
bin	1.8512e-05	1902
bin	1.85832e-05	1920
bin	1.86544e-05	1945
bin	1.87256e-05	1894
bin	1.87968e-05	1925
bin	1.8868e-05	1942
bin	1.89392e-05	1919
bin	1.90104e-05	1892
bin	1.90816e-05	1840
bin	1.91528e-05	1901
bin	1.9224e-05	1940
bin	1.92952e-05	1920
bin	1.93664e-05	1843
bin	1.94376e-05	1846
bin	1.95088e-05	1822
bin	1.958e-05	1838
bin	1.96512e-05	1869
bin	1.97224e-05	1835
bin	1.97936e-05	1852
bin	1.98648e-05	1824
bin	1.9936e-05	1709
bin	2.00072e-05	1799
bin	2.00784e-05	1743
bin	2.01496e-05	1758
bin	2.02208e-05	1786
bin	2.0292e-05	1771
bin	2.03632e-05	1736
bin	2.04344e-05	1761
bin	2.05056e-05	1771
bin	2.05768e-05	1795
bin	2.0648e-05	1707
bin	2.07192e-05	1796
bin	2.07904e-05	1752
bin	2.08616e-05	1747
bin	2.09328e-05	1690
bin	2.1004e-05	1756
bin	2.10752e-05	1690
bin	2.11464e-05	1740
bin	2.12176e-05	1716
bin	2.12888e-05	1694
bin	2.136e-05	1746
bin	2.14312e-05	1698
bin	2.15024e-05	1692
bin	2.15736e-05	1737
bin	2.16448e-05	1757
bin	2.1716e-05	1749
bin	2.17872e-05	1720
bin	2.18584e-05	1792
bin	2.19296e-05	1760
bin	2.20008e-05	1725
bin	2.2072e-05	1692
bin	2.21432e-05	1706
bin	2.22144e-05	1591
bin	2.22856e-05	1666
bin	2.23568e-05	1676
bin	2.2428e-05	1670
bin	2.24992e-05	1657
bin	2.25704e-05	1688
bin	2.26416e-05	1753
bin	2.27128e-05	1616
bin	2.2784e-05	1646
bin	2.28552e-05	1693
bin	2.29264e-05	1703
bin	2.29976e-05	1756
bin	2.30688e-05	1751
bin	2.314e-05	1758
bin	2.32112e-05	1734
bin	2.32824e-05	1646
bin	2.33536e-05	1685
bin	2.34248e-05	1622
bin	2.3496e-05	1603
bin	2.35672e-05	1600
bin	2.36384e-05	1581
bin	2.37096e-05	1650
bin	2.37808e-05	1614
bin	2.3852e-05	1538
bin	2.39232e-05	1615
bin	2.39944e-05	1572
bin	2.40656e-05	1540
bin	2.41368e-05	1584
bin	2.4208e-05	1643
bin	2.42792e-05	1618
bin	2.43504e-05	1622
bin	2.44216e-05	1639
bin	2.44928e-05	1631
bin	2.4564e-05	1611
bin	2.46352e-05	1599
bin	2.47064e-05	1625
bin	2.47776e-05	1604
bin	2.48488e-05	1692
bin	2.492e-05	1667
bin	2.49912e-05	1675
bin	2.50624e-05	1617
bin	2.51336e-05	1637
bin	2.52048e-05	1605
bin	2.5276e-05	1582
bin	2.53472e-05	1571
bin	2.54184e-05	1620
bin	2.54896e-05	1616
bin	2.55608e-05	1622
bin	2.5632e-05	1614
bin	2.57032e-05	1540
bin	2.57744e-05	1648
bin	2.58456e-05	1566
bin	2.59168e-05	1587
bin	2.5988e-05	1585
bin	2.60592e-05	1591
bin	2.61304e-05	1516
bin	2.62016e-05	1560
bin	2.62728e-05	1545
bin	2.6344e-05	1544
bin	2.64152e-05	1506
bin	2.64864e-05	1492
bin	2.65576e-05	1552
bin	2.66288e-05	1530
bin	2.67e-05	1632
bin	2.67712e-05	1536
bin	2.68424e-05	1610
bin	2.69136e-05	1620
bin	2.69848e-05	1643
bin	2.7056e-05	1556
bin	2.71272e-05	1501
bin	2.71984e-05	1570
bin	2.72696e-05	1635
bin	2.73408e-05	1596
bin	2.7412e-05	1610
bin	2.74832e-05	1530
bin	2.75544e-05	1580
bin	2.76256e-05	1480
bin	2.76968e-05	1560
bin	2.7768e-05	1517
bin	2.78392e-05	1610
bin	2.79104e-05	1529
bin	2.79816e-05	1618
bin	2.80528e-05	1681
bin	2.8124e-05	1566
bin	2.81952e-05	1550
bin	2.82664e-05	1556
bin	2.83376e-05	1574
bin	2.84088e-05	1593
bin	2.848e-05	1612
bin	2.85512e-05	1607
bin	2.86224e-05	1572
bin	2.86936e-05	1667
bin	2.87648e-05	1660
bin	2.8836e-05	1592
bin	2.89072e-05	1627
bin	2.89784e-05	1595
bin	2.90496e-05	1628
bin	2.91208e-05	1587
bin	2.9192e-05	1534
bin	2.92632e-05	1595
bin	2.93344e-05	1551
bin	2.94056e-05	1515
bin	2.94768e-05	1556
bin	2.9548e-05	1567
bin	2.96192e-05	1604
bin	2.96904e-05	1576
bin	2.97616e-05	1538
bin	2.98328e-05	1556
bin	2.9904e-05	1610
bin	2.99752e-05	1586
bin	3.00464e-05	1591
bin	3.01176e-05	1573
bin	3.01888e-05	1590
bin	3.026e-05	1541
bin	3.03312e-05	1505
bin	3.04024e-05	1532
bin	3.04736e-05	1551
bin	3.05448e-05	1574
bin	3.0616e-05	1639
bin	3.06872e-05	1539
bin	3.07584e-05	1538
bin	3.08296e-05	1554
bin	3.09008e-05	1548
bin	3.0972e-05	1522
bin	3.10432e-05	1498
bin	3.11144e-05	1545
bin	3.11856e-05	1511
bin	3.12568e-05	1484
bin	3.1328e-05	1490
bin	3.13992e-05	1528
bin	3.14704e-05	1484
bin	3.15416e-05	1499
bin	3.16128e-05	1466
bin	3.1684e-05	1479
bin	3.17552e-05	1479
bin	3.18264e-05	1507
bin	3.18976e-05	1536
bin	3.19688e-05	1532
bin	3.204e-05	1512
bin	3.21112e-05	1494
bin	3.21824e-05	1498
bin	3.22536e-05	1628
bin	3.23248e-05	1521
bin	3.2396e-05	1451
bin	3.24672e-05	1463
bin	3.25384e-05	1471
bin	3.26096e-05	1517
bin	3.26808e-05	1532
bin	3.2752e-05	1480
bin	3.28232e-05	1515
bin	3.28944e-05	1483
bin	3.29656e-05	1500
bin	3.30368e-05	1474
bin	3.3108e-05	1467
bin	3.31792e-05	1527
bin	3.32504e-05	1499
bin	3.33216e-05	1514
bin	3.33928e-05	1466
bin	3.3464e-05	1493
bin	3.35352e-05	1464
bin	3.36064e-05	1488
bin	3.36776e-05	1456
bin	3.37488e-05	1474
bin	3.382e-05	1520
bin	3.38912e-05	1574
bin	3.39624e-05	1531
bin	3.40336e-05	1511
bin	3.41048e-05	1547
bin	3.4176e-05	1481
bin	3.42472e-05	1547
bin	3.43184e-05	1521
bin	3.43896e-05	1499
bin	3.44608e-05	1495
bin	3.4532e-05	1470
bin	3.46032e-05	1521
bin	3.46744e-05	1523
bin	3.47456e-05	1473
bin	3.48168e-05	1446
bin	3.4888e-05	1493
bin	3.49592e-05	1538
bin	3.50304e-05	1556
bin	3.51016e-05	1464
bin	3.51728e-05	1478
bin	3.5244e-05	1509
bin	3.53152e-05	1454
bin	3.53864e-05	1392
bin	3.54576e-05	1461
bin	3.55288e-05	1452
bin	3.56e-05	4703394
statistic Torus3d_bub.timer 	"Life Times"
field count 6291456
field mean 0.0012916281195985
field stddev 0.00096917411511287
field sum 8126.2214828165
field sqrsum 16.405610199954
field min 2.06665553e-07
field max 0.003943220333332
bin	-INF	0
bin	0	6528
bin	8.544e-07	8192
bin	1.7088e-06	8522
bin	2.5632e-06	9046
bin	3.4176e-06	9581
bin	4.272e-06	10312
bin	5.1264e-06	11286
bin	5.9808e-06	12164
bin	6.8352e-06	13106
bin	7.6896e-06	14195
bin	8.544e-06	15330
bin	9.3984e-06	16458
bin	1.02528e-05	10942
bin	1.11072e-05	10282
bin	1.19616e-05	11077
bin	1.2816e-05	11602
bin	1.36704e-05	12127
bin	1.45248e-05	12672
bin	1.53792e-05	13194
bin	1.62336e-05	13837
bin	1.7088e-05	14198
bin	1.79424e-05	14413
bin	1.87968e-05	14778
bin	1.96512e-05	15022
bin	2.05056e-05	15442
bin	2.136e-05	15714
bin	2.22144e-05	15947
bin	2.30688e-05	16358
bin	2.39232e-05	16758
bin	2.47776e-05	16817
bin	2.5632e-05	16922
bin	2.64864e-05	16468
bin	2.73408e-05	15869
bin	2.81952e-05	15074
bin	2.90496e-05	14680
bin	2.9904e-05	13799
bin	3.07584e-05	13044
bin	3.16128e-05	12103
bin	3.24672e-05	11290
bin	3.33216e-05	10471
bin	3.4176e-05	9693
bin	3.50304e-05	9255
bin	3.58848e-05	8746
bin	3.67392e-05	8237
bin	3.75936e-05	7845
bin	3.8448e-05	7689
bin	3.93024e-05	7368
bin	4.01568e-05	7249
bin	4.10112e-05	6927
bin	4.18656e-05	6760
bin	4.272e-05	6635
bin	4.35744e-05	6466
bin	4.44288e-05	6365
bin	4.52832e-05	6190
bin	4.61376e-05	6201
bin	4.6992e-05	6038
bin	4.78464e-05	6020
bin	4.87008e-05	6144
bin	4.95552e-05	6127
bin	5.04096e-05	6033
bin	5.1264e-05	5909
bin	5.21184e-05	6014
bin	5.29728e-05	5709
bin	5.38272e-05	5791
bin	5.46816e-05	5664
bin	5.5536e-05	5547
bin	5.63904e-05	5421
bin	5.72448e-05	5366
bin	5.80992e-05	5151
bin	5.89536e-05	5037
bin	5.9808e-05	4899
bin	6.06624e-05	4810
bin	6.15168e-05	4767
bin	6.23712e-05	4626
bin	6.32256e-05	4587
bin	6.408e-05	4617
bin	6.49344e-05	4464
bin	6.57888e-05	4400
bin	6.66432e-05	4360
bin	6.74976e-05	4407
bin	6.8352e-05	4259
bin	6.92064e-05	4352
bin	7.00608e-05	4347
bin	7.09152e-05	4334
bin	7.17696e-05	4443
bin	7.2624e-05	4378
bin	7.34784e-05	4436
bin	7.43328e-05	4382
bin	7.51872e-05	4299
bin	7.60416e-05	4337
bin	7.6896e-05	4360
bin	7.77504e-05	4295
bin	7.86048e-05	4191
bin	7.94592e-05	4075
bin	8.03136e-05	4121
bin	8.1168e-05	4083
bin	8.20224e-05	4047
bin	8.28768e-05	3907
bin	8.37312e-05	3916
bin	8.45856e-05	3944
bin	8.544e-05	3882
bin	8.62944e-05	3798
bin	8.71488e-05	3852
bin	8.80032e-05	3863
bin	8.88576e-05	3656
bin	8.9712e-05	3530
bin	9.05664e-05	3781
bin	9.14208e-05	3692
bin	9.22752e-05	3654
bin	9.31296e-05	3614
bin	9.3984e-05	3544
bin	9.48384e-05	3507
bin	9.56928e-05	3583
bin	9.65472e-05	3558
bin	9.74016e-05	3527
bin	9.8256e-05	3678
bin	9.91104e-05	3616
bin	9.99648e-05	3543
bin	0.0001008192	3492
bin	0.0001016736	3459
bin	0.000102528	3399
bin	0.0001033824	3510
bin	0.0001042368	3426
bin	0.0001050912	3411
bin	0.0001059456	3337
bin	0.0001068	3399
bin	0.0001076544	3305
bin	0.0001085088	3270
bin	0.0001093632	3211
bin	0.0001102176	3083
bin	0.000111072	3126
bin	0.0001119264	3077
bin	0.0001127808	3148
bin	0.0001136352	3001
bin	0.0001144896	3128
bin	0.000115344	2992
bin	0.0001161984	2923
bin	0.0001170528	2904
bin	0.0001179072	2878
bin	0.0001187616	2929
bin	0.000119616	2823
bin	0.0001204704	2899
bin	0.0001213248	2822
bin	0.0001221792	2923
bin	0.0001230336	2880
bin	0.000123888	2871
bin	0.0001247424	2909
bin	0.0001255968	2824
bin	0.0001264512	2937
bin	0.0001273056	2959
bin	0.00012816	2963
bin	0.0001290144	2912
bin	0.0001298688	2818
bin	0.0001307232	2907
bin	0.0001315776	2834
bin	0.000132432	2766
bin	0.0001332864	2712
bin	0.0001341408	2620
bin	0.0001349952	2553
bin	0.0001358496	2598
bin	0.000136704	2500
bin	0.0001375584	2487
bin	0.0001384128	2420
bin	0.0001392672	2453
bin	0.0001401216	2517
bin	0.000140976	2404
bin	0.0001418304	2436
bin	0.0001426848	2418
bin	0.0001435392	2313
bin	0.0001443936	2333
bin	0.000145248	2474
bin	0.0001461024	2502
bin	0.0001469568	2505
bin	0.0001478112	2468
bin	0.0001486656	2498
bin	0.00014952	2482
bin	0.0001503744	2532
bin	0.0001512288	2446
bin	0.0001520832	2368
bin	0.0001529376	2465
bin	0.000153792	2496
bin	0.0001546464	2365
bin	0.0001555008	2383
bin	0.0001563552	2332
bin	0.0001572096	2283
bin	0.000158064	2253
bin	0.0001589184	2247
bin	0.0001597728	2309
bin	0.0001606272	2268
bin	0.0001614816	2335
bin	0.000162336	2267
bin	0.0001631904	2343
bin	0.0001640448	2286
bin	0.0001648992	2322
bin	0.0001657536	2229
bin	0.000166608	2293
bin	0.0001674624	2275
bin	0.0001683168	2280
bin	0.0001691712	2362
bin	0.0001700256	2318
bin	0.00017088	2412
bin	0.0001717344	2322
bin	0.0001725888	2433
bin	0.0001734432	2453
bin	0.0001742976	2417
bin	0.000175152	2461
bin	0.0001760064	2487
bin	0.0001768608	2480
bin	0.0001777152	2381
bin	0.0001785696	2310
bin	0.000179424	2311
bin	0.0001802784	2211
bin	0.0001811328	2358
bin	0.0001819872	2221
bin	0.0001828416	2203
bin	0.000183696	2178
bin	0.0001845504	2202
bin	0.0001854048	2112
bin	0.0001862592	2101
bin	0.0001871136	2105
bin	0.000187968	2203
bin	0.0001888224	2112
bin	0.0001896768	2139
bin	0.0001905312	2069
bin	0.0001913856	2087
bin	0.00019224	2071
bin	0.0001930944	2070
bin	0.0001939488	2118
bin	0.0001948032	2109
bin	0.0001956576	2141
bin	0.000196512	2154
bin	0.0001973664	2104
bin	0.0001982208	2156
bin	0.0001990752	2089
bin	0.0001999296	2084
bin	0.000200784	2152
bin	0.0002016384	2079
bin	0.0002024928	2096
bin	0.0002033472	2087
bin	0.0002042016	2059
bin	0.000205056	2089
bin	0.0002059104	2001
bin	0.0002067648	1981
bin	0.0002076192	1993
bin	0.0002084736	1879
bin	0.000209328	1949
bin	0.0002101824	1872
bin	0.0002110368	1853
bin	0.0002118912	1831
bin	0.0002127456	1873
bin	0.0002136	1847
bin	0.0002144544	1844
bin	0.0002153088	1827
bin	0.0002161632	1833
bin	0.0002170176	1841
bin	0.000217872	1861
bin	0.0002187264	1947
bin	0.0002195808	1797
bin	0.0002204352	1913
bin	0.0002212896	1945
bin	0.000222144	1926
bin	0.0002229984	2009
bin	0.0002238528	2008
bin	0.0002247072	1964
bin	0.0002255616	2001
bin	0.000226416	2036
bin	0.0002272704	2011
bin	0.0002281248	1908
bin	0.0002289792	1920
bin	0.0002298336	1881
bin	0.000230688	1966
bin	0.0002315424	1887
bin	0.0002323968	1811
bin	0.0002332512	1810
bin	0.0002341056	1735
bin	0.00023496	1801
bin	0.0002358144	1697
bin	0.0002366688	1799
bin	0.0002375232	1728
bin	0.0002383776	1746
bin	0.000239232	1673
bin	0.0002400864	1710
bin	0.0002409408	1833
bin	0.0002417952	1824
bin	0.0002426496	1818
bin	0.000243504	1805
bin	0.0002443584	1890
bin	0.0002452128	1910
bin	0.0002460672	1886
bin	0.0002469216	1854
bin	0.000247776	1810
bin	0.0002486304	1880
bin	0.0002494848	1845
bin	0.0002503392	1828
bin	0.0002511936	1830
bin	0.000252048	1852
bin	0.0002529024	1811
bin	0.0002537568	1763
bin	0.0002546112	1750
bin	0.0002554656	1753
bin	0.00025632	1824
bin	0.0002571744	1729
bin	0.0002580288	1715
bin	0.0002588832	1696
bin	0.0002597376	1733
bin	0.000260592	1751
bin	0.0002614464	1733
bin	0.0002623008	1693
bin	0.0002631552	1717
bin	0.0002640096	1721
bin	0.000264864	1653
bin	0.0002657184	1704
bin	0.0002665728	1759
bin	0.0002674272	1757
bin	0.0002682816	1778
bin	0.000269136	1829
bin	0.0002699904	1871
bin	0.0002708448	1877
bin	0.0002716992	1800
bin	0.0002725536	1894
bin	0.000273408	1923
bin	0.0002742624	1851
bin	0.0002751168	1896
bin	0.0002759712	1869
bin	0.0002768256	1802
bin	0.00027768	1851
bin	0.0002785344	1809
bin	0.0002793888	1827
bin	0.0002802432	1757
bin	0.0002810976	1858
bin	0.000281952	1765
bin	0.0002828064	1774
bin	0.0002836608	1750
bin	0.0002845152	1671
bin	0.0002853696	1733
bin	0.000286224	1758
bin	0.0002870784	1717
bin	0.0002879328	1683
bin	0.0002887872	1727
bin	0.0002896416	1689
bin	0.000290496	1706
bin	0.0002913504	1667
bin	0.0002922048	1757
bin	0.0002930592	1775
bin	0.0002939136	1714
bin	0.000294768	1728
bin	0.0002956224	1854
bin	0.0002964768	1781
bin	0.0002973312	1797
bin	0.0002981856	1755
bin	0.00029904	1802
bin	0.0002998944	1802
bin	0.0003007488	1777
bin	0.0003016032	1766
bin	0.0003024576	1836
bin	0.000303312	1750
bin	0.0003041664	1683
bin	0.0003050208	1649
bin	0.0003058752	1656
bin	0.0003067296	1674
bin	0.000307584	1622
bin	0.0003084384	1650
bin	0.0003092928	1669
bin	0.0003101472	1573
bin	0.0003110016	1598
bin	0.000311856	1603
bin	0.0003127104	1631
bin	0.0003135648	1611
bin	0.0003144192	1663
bin	0.0003152736	1691
bin	0.000316128	1648
bin	0.0003169824	1575
bin	0.0003178368	1578
bin	0.0003186912	1665
bin	0.0003195456	1673
bin	0.0003204	1665
bin	0.0003212544	1715
bin	0.0003221088	1722
bin	0.0003229632	1729
bin	0.0003238176	1762
bin	0.000324672	1714
bin	0.0003255264	1664
bin	0.0003263808	1660
bin	0.0003272352	1652
bin	0.0003280896	1670
bin	0.000328944	1620
bin	0.0003297984	1623
bin	0.0003306528	1593
bin	0.0003315072	1490
bin	0.0003323616	1543
bin	0.000333216	1518
bin	0.0003340704	1566
bin	0.0003349248	1479
bin	0.0003357792	1531
bin	0.0003366336	1549
bin	0.000337488	1476
bin	0.0003383424	1513
bin	0.0003391968	1555
bin	0.0003400512	1605
bin	0.0003409056	1519
bin	0.00034176	1570
bin	0.0003426144	1558
bin	0.0003434688	1548
bin	0.0003443232	1514
bin	0.0003451776	1611
bin	0.000346032	1549
bin	0.0003468864	1583
bin	0.0003477408	1547
bin	0.0003485952	1633
bin	0.0003494496	1585
bin	0.000350304	1646
bin	0.0003511584	1687
bin	0.0003520128	1550
bin	0.0003528672	1515
bin	0.0003537216	1527
bin	0.000354576	1568
bin	0.0003554304	1505
bin	0.0003562848	1558
bin	0.0003571392	1509
bin	0.0003579936	1472
bin	0.000358848	1512
bin	0.0003597024	1539
bin	0.0003605568	1447
bin	0.0003614112	1483
bin	0.0003622656	1563
bin	0.00036312	1519
bin	0.0003639744	1506
bin	0.0003648288	1571
bin	0.0003656832	1544
bin	0.0003665376	1543
bin	0.000367392	1618
bin	0.0003682464	1568
bin	0.0003691008	1609
bin	0.0003699552	1572
bin	0.0003708096	1659
bin	0.000371664	1582
bin	0.0003725184	1656
bin	0.0003733728	1634
bin	0.0003742272	1634
bin	0.0003750816	1642
bin	0.000375936	1633
bin	0.0003767904	1617
bin	0.0003776448	1615
bin	0.0003784992	1541
bin	0.0003793536	1564
bin	0.000380208	1574
bin	0.0003810624	1536
bin	0.0003819168	1530
bin	0.0003827712	1628
bin	0.0003836256	1611
bin	0.00038448	1597
bin	0.0003853344	1571
bin	0.0003861888	1537
bin	0.0003870432	1538
bin	0.0003878976	1540
bin	0.000388752	1493
bin	0.0003896064	1575
bin	0.0003904608	1564
bin	0.0003913152	1595
bin	0.0003921696	1580
bin	0.000393024	1631
bin	0.0003938784	1604
bin	0.0003947328	1579
bin	0.0003955872	1611
bin	0.0003964416	1568
bin	0.000397296	1600
bin	0.0003981504	1629
bin	0.0003990048	1593
bin	0.0003998592	1552
bin	0.0004007136	1489
bin	0.000401568	1514
bin	0.0004024224	1481
bin	0.0004032768	1465
bin	0.0004041312	1448
bin	0.0004049856	1466
bin	0.00040584	1426
bin	0.0004066944	1427
bin	0.0004075488	1471
bin	0.0004084032	1418
bin	0.0004092576	1508
bin	0.000410112	1428
bin	0.0004109664	1496
bin	0.0004118208	1516
bin	0.0004126752	1578
bin	0.0004135296	1565
bin	0.000414384	1617
bin	0.0004152384	1567
bin	0.0004160928	1505
bin	0.0004169472	1587
bin	0.0004178016	1543
bin	0.000418656	1534
bin	0.0004195104	1589
bin	0.0004203648	1639
bin	0.0004212192	1584
bin	0.0004220736	1591
bin	0.000422928	1559
bin	0.0004237824	1544
bin	0.0004246368	1620
bin	0.0004254912	1591
bin	0.0004263456	1576
bin	0.0004272	4623191
