version 2
run Transposition-53-20120710-13:32:57-25471
attr alg 1
attr buf 8
attr configname Transposition
attr datetime 20120710-13:32:57
attr delta 0.8
attr experiment Transposition
attr ext false
attr inifile altro.ini
attr iterationvars "$buf=8, $ext=false, $ofedge=1, $delta=0.8, $alg=1"
attr iterationvars2 "$buf=8, $ext=false, $ofedge=1, $delta=0.8, $alg=1, $repetition=0"
attr measurement "$buf=8, $ext=false, $ofedge=1, $delta=0.8, $alg=1"
attr network Torus3d_bub
attr ofedge 1
attr processid 25471
attr repetition 0
attr replication #0
attr resultdir altro-results
attr runnumber 53
attr seedset 53

scalar . 	alg 	1
scalar . 	buf 	8
scalar . 	delta 	0.8
scalar . 	ofedge 	1
scalar Torus3d_bub.timer 	#endTime 	0.006183161657513
scalar Torus3d_bub.timer 	#totalHops 	85737549
scalar Torus3d_bub.timer 	#totalPacks 	6291456
scalar Torus3d_bub.timer 	#totalDerouted 	2342651
scalar Torus3d_bub.timer 	#totalOutFlanked 	2342651
scalar Torus3d_bub.timer 	#totalCQRed 	0
scalar Torus3d_bub.timer 	#LB 	0.000786432
scalar Torus3d_bub.timer 	#ratio 	0.12718929951385
statistic Torus3d_bub.timer 	"Hop Times"
field count 6193152
field mean 0.00020136426410611
field stddev 0.00014569208802027
field sum 1247.0794949773
field sqrsum 0.38257421062278
field min 3.74222222e-07
field max 0.001089244865036
bin	-INF	0
bin	0	0
bin	7.12e-08	0
bin	1.424e-07	0
bin	2.136e-07	0
bin	2.848e-07	0
bin	3.56e-07	249
bin	4.272e-07	1023
bin	4.984e-07	2187
bin	5.696e-07	3572
bin	6.408e-07	4650
bin	7.12e-07	5768
bin	7.832e-07	6913
bin	8.544e-07	7676
bin	9.256e-07	8503
bin	9.968e-07	9252
bin	1.068e-06	9375
bin	1.1392e-06	10172
bin	1.2104e-06	10840
bin	1.2816e-06	11769
bin	1.3528e-06	12870
bin	1.424e-06	14069
bin	1.4952e-06	15357
bin	1.5664e-06	16174
bin	1.6376e-06	17054
bin	1.7088e-06	17639
bin	1.78e-06	18195
bin	1.8512e-06	18269
bin	1.9224e-06	18159
bin	1.9936e-06	18382
bin	2.0648e-06	17913
bin	2.136e-06	17471
bin	2.2072e-06	16816
bin	2.2784e-06	16179
bin	2.3496e-06	15387
bin	2.4208e-06	14827
bin	2.492e-06	14129
bin	2.5632e-06	13612
bin	2.6344e-06	13028
bin	2.7056e-06	12346
bin	2.7768e-06	11533
bin	2.848e-06	11134
bin	2.9192e-06	10579
bin	2.9904e-06	9940
bin	3.0616e-06	9493
bin	3.1328e-06	8857
bin	3.204e-06	8391
bin	3.2752e-06	8093
bin	3.3464e-06	7740
bin	3.4176e-06	7415
bin	3.4888e-06	7206
bin	3.56e-06	6770
bin	3.6312e-06	6488
bin	3.7024e-06	6362
bin	3.7736e-06	5925
bin	3.8448e-06	5666
bin	3.916e-06	5504
bin	3.9872e-06	5137
bin	4.0584e-06	5061
bin	4.1296e-06	4847
bin	4.2008e-06	4596
bin	4.272e-06	4553
bin	4.3432e-06	4285
bin	4.4144e-06	4158
bin	4.4856e-06	4021
bin	4.5568e-06	3886
bin	4.628e-06	3825
bin	4.6992e-06	3705
bin	4.7704e-06	3669
bin	4.8416e-06	3638
bin	4.9128e-06	3503
bin	4.984e-06	3313
bin	5.0552e-06	3305
bin	5.1264e-06	3328
bin	5.1976e-06	3181
bin	5.2688e-06	3105
bin	5.34e-06	3015
bin	5.4112e-06	2979
bin	5.4824e-06	2843
bin	5.5536e-06	2819
bin	5.6248e-06	2755
bin	5.696e-06	2690
bin	5.7672e-06	2579
bin	5.8384e-06	2581
bin	5.9096e-06	2474
bin	5.9808e-06	2510
bin	6.052e-06	2409
bin	6.1232e-06	2445
bin	6.1944e-06	2387
bin	6.2656e-06	2265
bin	6.3368e-06	2303
bin	6.408e-06	2235
bin	6.4792e-06	2135
bin	6.5504e-06	2147
bin	6.6216e-06	2019
bin	6.6928e-06	2040
bin	6.764e-06	2019
bin	6.8352e-06	2071
bin	6.9064e-06	1895
bin	6.9776e-06	1888
bin	7.0488e-06	1843
bin	7.12e-06	1813
bin	7.1912e-06	1755
bin	7.2624e-06	1842
bin	7.3336e-06	1724
bin	7.4048e-06	1630
bin	7.476e-06	1611
bin	7.5472e-06	1625
bin	7.6184e-06	1559
bin	7.6896e-06	1599
bin	7.7608e-06	1519
bin	7.832e-06	1543
bin	7.9032e-06	1417
bin	7.9744e-06	1483
bin	8.0456e-06	1486
bin	8.1168e-06	1425
bin	8.188e-06	1302
bin	8.2592e-06	1282
bin	8.3304e-06	1320
bin	8.4016e-06	1317
bin	8.4728e-06	1274
bin	8.544e-06	1354
bin	8.6152e-06	1324
bin	8.6864e-06	1264
bin	8.7576e-06	1217
bin	8.8288e-06	1235
bin	8.9e-06	1302
bin	8.9712e-06	1263
bin	9.0424e-06	1194
bin	9.1136e-06	1218
bin	9.1848e-06	1210
bin	9.256e-06	1209
bin	9.3272e-06	1172
bin	9.3984e-06	1162
bin	9.4696e-06	1224
bin	9.5408e-06	1168
bin	9.612e-06	1196
bin	9.6832e-06	1171
bin	9.7544e-06	1139
bin	9.8256e-06	1107
bin	9.8968e-06	1105
bin	9.968e-06	1082
bin	1.00392e-05	1088
bin	1.01104e-05	1043
bin	1.01816e-05	1130
bin	1.02528e-05	1039
bin	1.0324e-05	1088
bin	1.03952e-05	1043
bin	1.04664e-05	1011
bin	1.05376e-05	1052
bin	1.06088e-05	1035
bin	1.068e-05	1008
bin	1.07512e-05	1001
bin	1.08224e-05	983
bin	1.08936e-05	1018
bin	1.09648e-05	1035
bin	1.1036e-05	1038
bin	1.11072e-05	948
bin	1.11784e-05	994
bin	1.12496e-05	1032
bin	1.13208e-05	1034
bin	1.1392e-05	1021
bin	1.14632e-05	1035
bin	1.15344e-05	1029
bin	1.16056e-05	1055
bin	1.16768e-05	1033
bin	1.1748e-05	1088
bin	1.18192e-05	1033
bin	1.18904e-05	996
bin	1.19616e-05	1004
bin	1.20328e-05	1019
bin	1.2104e-05	962
bin	1.21752e-05	928
bin	1.22464e-05	930
bin	1.23176e-05	927
bin	1.23888e-05	893
bin	1.246e-05	916
bin	1.25312e-05	880
bin	1.26024e-05	894
bin	1.26736e-05	878
bin	1.27448e-05	877
bin	1.2816e-05	899
bin	1.28872e-05	897
bin	1.29584e-05	874
bin	1.30296e-05	857
bin	1.31008e-05	830
bin	1.3172e-05	819
bin	1.32432e-05	764
bin	1.33144e-05	752
bin	1.33856e-05	792
bin	1.34568e-05	777
bin	1.3528e-05	801
bin	1.35992e-05	779
bin	1.36704e-05	790
bin	1.37416e-05	783
bin	1.38128e-05	781
bin	1.3884e-05	799
bin	1.39552e-05	789
bin	1.40264e-05	793
bin	1.40976e-05	846
bin	1.41688e-05	870
bin	1.424e-05	816
bin	1.43112e-05	835
bin	1.43824e-05	800
bin	1.44536e-05	827
bin	1.45248e-05	800
bin	1.4596e-05	833
bin	1.46672e-05	798
bin	1.47384e-05	831
bin	1.48096e-05	830
bin	1.48808e-05	775
bin	1.4952e-05	829
bin	1.50232e-05	731
bin	1.50944e-05	769
bin	1.51656e-05	813
bin	1.52368e-05	817
bin	1.5308e-05	761
bin	1.53792e-05	764
bin	1.54504e-05	737
bin	1.55216e-05	740
bin	1.55928e-05	737
bin	1.5664e-05	745
bin	1.57352e-05	792
bin	1.58064e-05	757
bin	1.58776e-05	744
bin	1.59488e-05	757
bin	1.602e-05	759
bin	1.60912e-05	759
bin	1.61624e-05	739
bin	1.62336e-05	749
bin	1.63048e-05	723
bin	1.6376e-05	762
bin	1.64472e-05	701
bin	1.65184e-05	720
bin	1.65896e-05	757
bin	1.66608e-05	752
bin	1.6732e-05	688
bin	1.68032e-05	692
bin	1.68744e-05	753
bin	1.69456e-05	738
bin	1.70168e-05	717
bin	1.7088e-05	738
bin	1.71592e-05	797
bin	1.72304e-05	774
bin	1.73016e-05	728
bin	1.73728e-05	769
bin	1.7444e-05	728
bin	1.75152e-05	754
bin	1.75864e-05	734
bin	1.76576e-05	777
bin	1.77288e-05	756
bin	1.78e-05	707
bin	1.78712e-05	735
bin	1.79424e-05	745
bin	1.80136e-05	744
bin	1.80848e-05	782
bin	1.8156e-05	711
bin	1.82272e-05	710
bin	1.82984e-05	739
bin	1.83696e-05	728
bin	1.84408e-05	702
bin	1.8512e-05	765
bin	1.85832e-05	688
bin	1.86544e-05	737
bin	1.87256e-05	728
bin	1.87968e-05	739
bin	1.8868e-05	704
bin	1.89392e-05	745
bin	1.90104e-05	747
bin	1.90816e-05	724
bin	1.91528e-05	683
bin	1.9224e-05	712
bin	1.92952e-05	714
bin	1.93664e-05	768
bin	1.94376e-05	689
bin	1.95088e-05	720
bin	1.958e-05	699
bin	1.96512e-05	667
bin	1.97224e-05	643
bin	1.97936e-05	641
bin	1.98648e-05	591
bin	1.9936e-05	606
bin	2.00072e-05	617
bin	2.00784e-05	641
bin	2.01496e-05	594
bin	2.02208e-05	618
bin	2.0292e-05	589
bin	2.03632e-05	619
bin	2.04344e-05	589
bin	2.05056e-05	665
bin	2.05768e-05	671
bin	2.0648e-05	607
bin	2.07192e-05	656
bin	2.07904e-05	626
bin	2.08616e-05	642
bin	2.09328e-05	654
bin	2.1004e-05	654
bin	2.10752e-05	636
bin	2.11464e-05	600
bin	2.12176e-05	563
bin	2.12888e-05	583
bin	2.136e-05	596
bin	2.14312e-05	598
bin	2.15024e-05	580
bin	2.15736e-05	640
bin	2.16448e-05	634
bin	2.1716e-05	618
bin	2.17872e-05	653
bin	2.18584e-05	639
bin	2.19296e-05	653
bin	2.20008e-05	616
bin	2.2072e-05	646
bin	2.21432e-05	618
bin	2.22144e-05	584
bin	2.22856e-05	616
bin	2.23568e-05	611
bin	2.2428e-05	624
bin	2.24992e-05	593
bin	2.25704e-05	608
bin	2.26416e-05	643
bin	2.27128e-05	664
bin	2.2784e-05	624
bin	2.28552e-05	604
bin	2.29264e-05	599
bin	2.29976e-05	634
bin	2.30688e-05	642
bin	2.314e-05	658
bin	2.32112e-05	660
bin	2.32824e-05	659
bin	2.33536e-05	647
bin	2.34248e-05	624
bin	2.3496e-05	652
bin	2.35672e-05	636
bin	2.36384e-05	667
bin	2.37096e-05	636
bin	2.37808e-05	636
bin	2.3852e-05	639
bin	2.39232e-05	620
bin	2.39944e-05	644
bin	2.40656e-05	634
bin	2.41368e-05	616
bin	2.4208e-05	610
bin	2.42792e-05	573
bin	2.43504e-05	651
bin	2.44216e-05	660
bin	2.44928e-05	610
bin	2.4564e-05	625
bin	2.46352e-05	617
bin	2.47064e-05	591
bin	2.47776e-05	592
bin	2.48488e-05	625
bin	2.492e-05	610
bin	2.49912e-05	657
bin	2.50624e-05	634
bin	2.51336e-05	624
bin	2.52048e-05	602
bin	2.5276e-05	580
bin	2.53472e-05	592
bin	2.54184e-05	622
bin	2.54896e-05	595
bin	2.55608e-05	597
bin	2.5632e-05	636
bin	2.57032e-05	591
bin	2.57744e-05	639
bin	2.58456e-05	622
bin	2.59168e-05	589
bin	2.5988e-05	601
bin	2.60592e-05	552
bin	2.61304e-05	568
bin	2.62016e-05	624
bin	2.62728e-05	564
bin	2.6344e-05	576
bin	2.64152e-05	603
bin	2.64864e-05	594
bin	2.65576e-05	585
bin	2.66288e-05	585
bin	2.67e-05	572
bin	2.67712e-05	581
bin	2.68424e-05	546
bin	2.69136e-05	618
bin	2.69848e-05	554
bin	2.7056e-05	597
bin	2.71272e-05	558
bin	2.71984e-05	564
bin	2.72696e-05	613
bin	2.73408e-05	565
bin	2.7412e-05	562
bin	2.74832e-05	591
bin	2.75544e-05	593
bin	2.76256e-05	565
bin	2.76968e-05	536
bin	2.7768e-05	552
bin	2.78392e-05	548
bin	2.79104e-05	543
bin	2.79816e-05	567
bin	2.80528e-05	540
bin	2.8124e-05	513
bin	2.81952e-05	569
bin	2.82664e-05	578
bin	2.83376e-05	601
bin	2.84088e-05	595
bin	2.848e-05	593
bin	2.85512e-05	607
bin	2.86224e-05	620
bin	2.86936e-05	607
bin	2.87648e-05	615
bin	2.8836e-05	581
bin	2.89072e-05	562
bin	2.89784e-05	571
bin	2.90496e-05	572
bin	2.91208e-05	569
bin	2.9192e-05	582
bin	2.92632e-05	598
bin	2.93344e-05	545
bin	2.94056e-05	577
bin	2.94768e-05	560
bin	2.9548e-05	580
bin	2.96192e-05	573
bin	2.96904e-05	618
bin	2.97616e-05	630
bin	2.98328e-05	624
bin	2.9904e-05	593
bin	2.99752e-05	606
bin	3.00464e-05	580
bin	3.01176e-05	581
bin	3.01888e-05	579
bin	3.026e-05	586
bin	3.03312e-05	624
bin	3.04024e-05	604
bin	3.04736e-05	595
bin	3.05448e-05	618
bin	3.0616e-05	631
bin	3.06872e-05	644
bin	3.07584e-05	630
bin	3.08296e-05	660
bin	3.09008e-05	637
bin	3.0972e-05	654
bin	3.10432e-05	677
bin	3.11144e-05	596
bin	3.11856e-05	623
bin	3.12568e-05	601
bin	3.1328e-05	583
bin	3.13992e-05	563
bin	3.14704e-05	555
bin	3.15416e-05	573
bin	3.16128e-05	513
bin	3.1684e-05	533
bin	3.17552e-05	533
bin	3.18264e-05	549
bin	3.18976e-05	530
bin	3.19688e-05	531
bin	3.204e-05	570
bin	3.21112e-05	544
bin	3.21824e-05	570
bin	3.22536e-05	562
bin	3.23248e-05	554
bin	3.2396e-05	524
bin	3.24672e-05	578
bin	3.25384e-05	549
bin	3.26096e-05	599
bin	3.26808e-05	574
bin	3.2752e-05	560
bin	3.28232e-05	560
bin	3.28944e-05	581
bin	3.29656e-05	587
bin	3.30368e-05	566
bin	3.3108e-05	616
bin	3.31792e-05	626
bin	3.32504e-05	684
bin	3.33216e-05	646
bin	3.33928e-05	641
bin	3.3464e-05	596
bin	3.35352e-05	605
bin	3.36064e-05	629
bin	3.36776e-05	601
bin	3.37488e-05	623
bin	3.382e-05	632
bin	3.38912e-05	608
bin	3.39624e-05	604
bin	3.40336e-05	629
bin	3.41048e-05	621
bin	3.4176e-05	613
bin	3.42472e-05	607
bin	3.43184e-05	609
bin	3.43896e-05	615
bin	3.44608e-05	599
bin	3.4532e-05	622
bin	3.46032e-05	614
bin	3.46744e-05	601
bin	3.47456e-05	643
bin	3.48168e-05	607
bin	3.4888e-05	588
bin	3.49592e-05	602
bin	3.50304e-05	621
bin	3.51016e-05	580
bin	3.51728e-05	615
bin	3.5244e-05	621
bin	3.53152e-05	658
bin	3.53864e-05	645
bin	3.54576e-05	653
bin	3.55288e-05	663
bin	3.56e-05	5208215
statistic Torus3d_bub.timer 	"Life Times"
field count 6291456
field mean 0.0026105263878083
field stddev 0.0016216565933124
field sum 16424.011905735
field sqrsum 59.42039675983
field min 1.64e-07
field max 0.006082018657513
bin	-INF	0
bin	0	6205
bin	8.544e-07	8188
bin	1.7088e-06	8788
bin	2.5632e-06	9968
bin	3.4176e-06	10942
bin	4.272e-06	12169
bin	5.1264e-06	13291
bin	5.9808e-06	14351
bin	6.8352e-06	15258
bin	7.6896e-06	16284
bin	8.544e-06	17219
bin	9.3984e-06	18143
bin	1.02528e-05	12816
bin	1.11072e-05	11324
bin	1.19616e-05	12090
bin	1.2816e-05	12345
bin	1.36704e-05	12986
bin	1.45248e-05	13199
bin	1.53792e-05	13353
bin	1.62336e-05	13607
bin	1.7088e-05	13707
bin	1.79424e-05	14194
bin	1.87968e-05	14300
bin	1.96512e-05	14521
bin	2.05056e-05	14887
bin	2.136e-05	14995
bin	2.22144e-05	15174
bin	2.30688e-05	15609
bin	2.39232e-05	16060
bin	2.47776e-05	16523
bin	2.5632e-05	16691
bin	2.64864e-05	17025
bin	2.73408e-05	17162
bin	2.81952e-05	16815
bin	2.90496e-05	16788
bin	2.9904e-05	16428
bin	3.07584e-05	16162
bin	3.16128e-05	15604
bin	3.24672e-05	14708
bin	3.33216e-05	14038
bin	3.4176e-05	13062
bin	3.50304e-05	12113
bin	3.58848e-05	11074
bin	3.67392e-05	10241
bin	3.75936e-05	9359
bin	3.8448e-05	8364
bin	3.93024e-05	7440
bin	4.01568e-05	6591
bin	4.10112e-05	5877
bin	4.18656e-05	5374
bin	4.272e-05	4987
bin	4.35744e-05	4629
bin	4.44288e-05	4310
bin	4.52832e-05	4053
bin	4.61376e-05	3884
bin	4.6992e-05	3719
bin	4.78464e-05	3511
bin	4.87008e-05	3513
bin	4.95552e-05	3512
bin	5.04096e-05	3380
bin	5.1264e-05	3555
bin	5.21184e-05	3337
bin	5.29728e-05	3374
bin	5.38272e-05	3334
bin	5.46816e-05	3285
bin	5.5536e-05	3200
bin	5.63904e-05	3332
bin	5.72448e-05	3304
bin	5.80992e-05	3369
bin	5.89536e-05	3212
bin	5.9808e-05	3381
bin	6.06624e-05	3296
bin	6.15168e-05	3349
bin	6.23712e-05	3460
bin	6.32256e-05	3299
bin	6.408e-05	3169
bin	6.49344e-05	3058
bin	6.57888e-05	3084
bin	6.66432e-05	2824
bin	6.74976e-05	2801
bin	6.8352e-05	2587
bin	6.92064e-05	2519
bin	7.00608e-05	2398
bin	7.09152e-05	2211
bin	7.17696e-05	2051
bin	7.2624e-05	1972
bin	7.34784e-05	1927
bin	7.43328e-05	1771
bin	7.51872e-05	1732
bin	7.60416e-05	1720
bin	7.6896e-05	1763
bin	7.77504e-05	1686
bin	7.86048e-05	1641
bin	7.94592e-05	1657
bin	8.03136e-05	1630
bin	8.1168e-05	1719
bin	8.20224e-05	1634
bin	8.28768e-05	1666
bin	8.37312e-05	1679
bin	8.45856e-05	1610
bin	8.544e-05	1668
bin	8.62944e-05	1723
bin	8.71488e-05	1692
bin	8.80032e-05	1764
bin	8.88576e-05	1779
bin	8.9712e-05	1707
bin	9.05664e-05	1769
bin	9.14208e-05	1730
bin	9.22752e-05	1815
bin	9.31296e-05	1754
bin	9.3984e-05	1814
bin	9.48384e-05	1726
bin	9.56928e-05	1652
bin	9.65472e-05	1577
bin	9.74016e-05	1580
bin	9.8256e-05	1519
bin	9.91104e-05	1416
bin	9.99648e-05	1437
bin	0.0001008192	1352
bin	0.0001016736	1365
bin	0.000102528	1295
bin	0.0001033824	1207
bin	0.0001042368	1178
bin	0.0001050912	1122
bin	0.0001059456	1088
bin	0.0001068	1090
bin	0.0001076544	1061
bin	0.0001085088	1097
bin	0.0001093632	1081
bin	0.0001102176	1100
bin	0.000111072	1128
bin	0.0001119264	1129
bin	0.0001127808	1155
bin	0.0001136352	1127
bin	0.0001144896	1182
bin	0.000115344	1167
bin	0.0001161984	1229
bin	0.0001170528	1249
bin	0.0001179072	1242
bin	0.0001187616	1183
bin	0.000119616	1220
bin	0.0001204704	1224
bin	0.0001213248	1166
bin	0.0001221792	1215
bin	0.0001230336	1230
bin	0.000123888	1257
bin	0.0001247424	1223
bin	0.0001255968	1218
bin	0.0001264512	1206
bin	0.0001273056	1084
bin	0.00012816	1075
bin	0.0001290144	1099
bin	0.0001298688	1061
bin	0.0001307232	999
bin	0.0001315776	942
bin	0.000132432	944
bin	0.0001332864	896
bin	0.0001341408	905
bin	0.0001349952	921
bin	0.0001358496	891
bin	0.000136704	919
bin	0.0001375584	929
bin	0.0001384128	929
bin	0.0001392672	890
bin	0.0001401216	914
bin	0.000140976	929
bin	0.0001418304	960
bin	0.0001426848	972
bin	0.0001435392	966
bin	0.0001443936	981
bin	0.000145248	938
bin	0.0001461024	1000
bin	0.0001469568	983
bin	0.0001478112	963
bin	0.0001486656	968
bin	0.00014952	1013
bin	0.0001503744	998
bin	0.0001512288	1029
bin	0.0001520832	1087
bin	0.0001529376	1123
bin	0.000153792	1053
bin	0.0001546464	1051
bin	0.0001555008	1082
bin	0.0001563552	1068
bin	0.0001572096	1018
bin	0.000158064	947
bin	0.0001589184	917
bin	0.0001597728	948
bin	0.0001606272	901
bin	0.0001614816	881
bin	0.000162336	827
bin	0.0001631904	800
bin	0.0001640448	802
bin	0.0001648992	729
bin	0.0001657536	730
bin	0.000166608	791
bin	0.0001674624	750
bin	0.0001683168	775
bin	0.0001691712	773
bin	0.0001700256	754
bin	0.00017088	767
bin	0.0001717344	805
bin	0.0001725888	811
bin	0.0001734432	842
bin	0.0001742976	844
bin	0.000175152	881
bin	0.0001760064	882
bin	0.0001768608	849
bin	0.0001777152	866
bin	0.0001785696	868
bin	0.000179424	877
bin	0.0001802784	885
bin	0.0001811328	902
bin	0.0001819872	878
bin	0.0001828416	859
bin	0.000183696	838
bin	0.0001845504	872
bin	0.0001854048	907
bin	0.0001862592	876
bin	0.0001871136	865
bin	0.000187968	865
bin	0.0001888224	865
bin	0.0001896768	837
bin	0.0001905312	843
bin	0.0001913856	776
bin	0.00019224	779
bin	0.0001930944	752
bin	0.0001939488	716
bin	0.0001948032	731
bin	0.0001956576	722
bin	0.000196512	737
bin	0.0001973664	734
bin	0.0001982208	707
bin	0.0001990752	667
bin	0.0001999296	679
bin	0.000200784	678
bin	0.0002016384	669
bin	0.0002024928	654
bin	0.0002033472	685
bin	0.0002042016	717
bin	0.000205056	751
bin	0.0002059104	771
bin	0.0002067648	744
bin	0.0002076192	759
bin	0.0002084736	710
bin	0.000209328	749
bin	0.0002101824	770
bin	0.0002110368	751
bin	0.0002118912	723
bin	0.0002127456	732
bin	0.0002136	726
bin	0.0002144544	739
bin	0.0002153088	764
bin	0.0002161632	753
bin	0.0002170176	743
bin	0.000217872	750
bin	0.0002187264	757
bin	0.0002195808	767
bin	0.0002204352	741
bin	0.0002212896	693
bin	0.000222144	698
bin	0.0002229984	684
bin	0.0002238528	674
bin	0.0002247072	679
bin	0.0002255616	630
bin	0.000226416	604
bin	0.0002272704	620
bin	0.0002281248	649
bin	0.0002289792	608
bin	0.0002298336	619
bin	0.000230688	597
bin	0.0002315424	671
bin	0.0002323968	628
bin	0.0002332512	594
bin	0.0002341056	622
bin	0.00023496	610
bin	0.0002358144	656
bin	0.0002366688	654
bin	0.0002375232	631
bin	0.0002383776	675
bin	0.000239232	682
bin	0.0002400864	674
bin	0.0002409408	647
bin	0.0002417952	700
bin	0.0002426496	712
bin	0.000243504	721
bin	0.0002443584	710
bin	0.0002452128	730
bin	0.0002460672	784
bin	0.0002469216	747
bin	0.000247776	786
bin	0.0002486304	723
bin	0.0002494848	710
bin	0.0002503392	670
bin	0.0002511936	730
bin	0.000252048	677
bin	0.0002529024	647
bin	0.0002537568	658
bin	0.0002546112	644
bin	0.0002554656	622
bin	0.00025632	599
bin	0.0002571744	629
bin	0.0002580288	589
bin	0.0002588832	589
bin	0.0002597376	607
bin	0.000260592	619
bin	0.0002614464	646
bin	0.0002623008	605
bin	0.0002631552	608
bin	0.0002640096	630
bin	0.000264864	635
bin	0.0002657184	641
bin	0.0002665728	616
bin	0.0002674272	652
bin	0.0002682816	632
bin	0.000269136	686
bin	0.0002699904	663
bin	0.0002708448	689
bin	0.0002716992	674
bin	0.0002725536	675
bin	0.000273408	713
bin	0.0002742624	669
bin	0.0002751168	709
bin	0.0002759712	669
bin	0.0002768256	674
bin	0.00027768	710
bin	0.0002785344	683
bin	0.0002793888	686
bin	0.0002802432	643
bin	0.0002810976	646
bin	0.000281952	666
bin	0.0002828064	626
bin	0.0002836608	607
bin	0.0002845152	611
bin	0.0002853696	602
bin	0.000286224	575
bin	0.0002870784	603
bin	0.0002879328	571
bin	0.0002887872	573
bin	0.0002896416	572
bin	0.000290496	568
bin	0.0002913504	579
bin	0.0002922048	572
bin	0.0002930592	601
bin	0.0002939136	597
bin	0.000294768	604
bin	0.0002956224	593
bin	0.0002964768	569
bin	0.0002973312	620
bin	0.0002981856	640
bin	0.00029904	630
bin	0.0002998944	647
bin	0.0003007488	650
bin	0.0003016032	641
bin	0.0003024576	589
bin	0.000303312	629
bin	0.0003041664	588
bin	0.0003050208	592
bin	0.0003058752	560
bin	0.0003067296	618
bin	0.000307584	622
bin	0.0003084384	638
bin	0.0003092928	617
bin	0.0003101472	595
bin	0.0003110016	578
bin	0.000311856	580
bin	0.0003127104	577
bin	0.0003135648	600
bin	0.0003144192	564
bin	0.0003152736	525
bin	0.000316128	547
bin	0.0003169824	540
bin	0.0003178368	539
bin	0.0003186912	534
bin	0.0003195456	522
bin	0.0003204	486
bin	0.0003212544	476
bin	0.0003221088	481
bin	0.0003229632	467
bin	0.0003238176	481
bin	0.000324672	494
bin	0.0003255264	510
bin	0.0003263808	533
bin	0.0003272352	559
bin	0.0003280896	505
bin	0.000328944	526
bin	0.0003297984	542
bin	0.0003306528	535
bin	0.0003315072	563
bin	0.0003323616	539
bin	0.000333216	577
bin	0.0003340704	573
bin	0.0003349248	602
bin	0.0003357792	613
bin	0.0003366336	574
bin	0.000337488	627
bin	0.0003383424	617
bin	0.0003391968	592
bin	0.0003400512	631
bin	0.0003409056	598
bin	0.00034176	606
bin	0.0003426144	594
bin	0.0003434688	617
bin	0.0003443232	602
bin	0.0003451776	608
bin	0.000346032	578
bin	0.0003468864	560
bin	0.0003477408	550
bin	0.0003485952	521
bin	0.0003494496	496
bin	0.000350304	521
bin	0.0003511584	484
bin	0.0003520128	520
bin	0.0003528672	525
bin	0.0003537216	568
bin	0.000354576	581
bin	0.0003554304	535
bin	0.0003562848	575
bin	0.0003571392	554
bin	0.0003579936	551
bin	0.000358848	555
bin	0.0003597024	571
bin	0.0003605568	587
bin	0.0003614112	607
bin	0.0003622656	613
bin	0.00036312	624
bin	0.0003639744	595
bin	0.0003648288	606
bin	0.0003656832	624
bin	0.0003665376	654
bin	0.000367392	674
bin	0.0003682464	640
bin	0.0003691008	628
bin	0.0003699552	637
bin	0.0003708096	634
bin	0.000371664	618
bin	0.0003725184	604
bin	0.0003733728	595
bin	0.0003742272	561
bin	0.0003750816	568
bin	0.000375936	562
bin	0.0003767904	550
bin	0.0003776448	529
bin	0.0003784992	526
bin	0.0003793536	534
bin	0.000380208	562
bin	0.0003810624	497
bin	0.0003819168	481
bin	0.0003827712	484
bin	0.0003836256	524
bin	0.00038448	503
bin	0.0003853344	533
bin	0.0003861888	506
bin	0.0003870432	552
bin	0.0003878976	540
bin	0.000388752	565
bin	0.0003896064	567
bin	0.0003904608	523
bin	0.0003913152	549
bin	0.0003921696	534
bin	0.000393024	539
bin	0.0003938784	594
bin	0.0003947328	579
bin	0.0003955872	630
bin	0.0003964416	589
bin	0.000397296	649
bin	0.0003981504	635
bin	0.0003990048	651
bin	0.0003998592	640
bin	0.0004007136	622
bin	0.000401568	615
bin	0.0004024224	595
bin	0.0004032768	612
bin	0.0004041312	600
bin	0.0004049856	614
bin	0.00040584	589
bin	0.0004066944	583
bin	0.0004075488	567
bin	0.0004084032	561
bin	0.0004092576	569
bin	0.000410112	537
bin	0.0004109664	517
bin	0.0004118208	529
bin	0.0004126752	526
bin	0.0004135296	501
bin	0.000414384	494
bin	0.0004152384	533
bin	0.0004160928	558
bin	0.0004169472	560
bin	0.0004178016	563
bin	0.000418656	541
bin	0.0004195104	559
bin	0.0004203648	588
bin	0.0004212192	588
bin	0.0004220736	568
bin	0.000422928	598
bin	0.0004237824	593
bin	0.0004246368	601
bin	0.0004254912	601
bin	0.0004263456	592
bin	0.0004272	5190480
