version 2
run Uniform-36-20120709-17:04:00-24751
attr alg 0
attr buf 8
attr configname Uniform
attr datetime 20120709-17:04:00
attr delta 1
attr experiment Uniform
attr ext true
attr inifile altro.ini
attr iterationvars "$buf=8, $ext=true, $ofedge=2, $delta=1, $alg=0"
attr iterationvars2 "$buf=8, $ext=true, $ofedge=2, $delta=1, $alg=0, $repetition=0"
attr measurement "$buf=8, $ext=true, $ofedge=2, $delta=1, $alg=0"
attr network Torus3d_bub
attr ofedge 2
attr processid 24751
attr repetition 0
attr replication #0
attr resultdir altro-results
attr runnumber 36
attr seedset 36

scalar . 	alg 	0
scalar . 	buf 	8
scalar . 	delta 	1
scalar . 	ofedge 	2
scalar Torus3d_bub.timer 	#endTime 	0.001613717664171
scalar Torus3d_bub.timer 	#totalHops 	75507552
scalar Torus3d_bub.timer 	#totalPacks 	6291456
scalar Torus3d_bub.timer 	#totalDerouted 	0
scalar Torus3d_bub.timer 	#totalOutFlanked 	0
scalar Torus3d_bub.timer 	#totalCQRed 	0
scalar Torus3d_bub.timer 	#LB 	0.000786432
scalar Torus3d_bub.timer 	#ratio 	0.48734175590995
statistic Torus3d_bub.timer 	"Hop Times"
field count 6290208
field mean 3.7071169084014e-05
field stddev 3.6651487312168e-05
field sum 233.18536434162
field sqrsum 0.017094287413651
field min 4.00518518e-07
field max 0.001230377666666
bin	-INF	0
bin	0	0
bin	7.12e-08	0
bin	1.424e-07	0
bin	2.136e-07	0
bin	2.848e-07	0
bin	3.56e-07	36
bin	4.272e-07	706
bin	4.984e-07	1764
bin	5.696e-07	2896
bin	6.408e-07	4262
bin	7.12e-07	5600
bin	7.832e-07	6735
bin	8.544e-07	7763
bin	9.256e-07	8792
bin	9.968e-07	9828
bin	1.068e-06	10700
bin	1.1392e-06	11936
bin	1.2104e-06	13071
bin	1.2816e-06	14455
bin	1.3528e-06	15927
bin	1.424e-06	17222
bin	1.4952e-06	19067
bin	1.5664e-06	20271
bin	1.6376e-06	21313
bin	1.7088e-06	22337
bin	1.78e-06	22787
bin	1.8512e-06	22925
bin	1.9224e-06	23298
bin	1.9936e-06	22967
bin	2.0648e-06	22469
bin	2.136e-06	21863
bin	2.2072e-06	21021
bin	2.2784e-06	20625
bin	2.3496e-06	19775
bin	2.4208e-06	18972
bin	2.492e-06	18215
bin	2.5632e-06	17552
bin	2.6344e-06	16947
bin	2.7056e-06	16243
bin	2.7768e-06	15504
bin	2.848e-06	15024
bin	2.9192e-06	14481
bin	2.9904e-06	14034
bin	3.0616e-06	13377
bin	3.1328e-06	13109
bin	3.204e-06	12721
bin	3.2752e-06	12370
bin	3.3464e-06	12064
bin	3.4176e-06	11750
bin	3.4888e-06	11433
bin	3.56e-06	11081
bin	3.6312e-06	11098
bin	3.7024e-06	10684
bin	3.7736e-06	10436
bin	3.8448e-06	10145
bin	3.916e-06	10035
bin	3.9872e-06	9853
bin	4.0584e-06	9868
bin	4.1296e-06	9687
bin	4.2008e-06	9422
bin	4.272e-06	9326
bin	4.3432e-06	9240
bin	4.4144e-06	9056
bin	4.4856e-06	8852
bin	4.5568e-06	8676
bin	4.628e-06	8727
bin	4.6992e-06	8616
bin	4.7704e-06	8458
bin	4.8416e-06	8553
bin	4.9128e-06	8314
bin	4.984e-06	8135
bin	5.0552e-06	8207
bin	5.1264e-06	8057
bin	5.1976e-06	8045
bin	5.2688e-06	7985
bin	5.34e-06	8042
bin	5.4112e-06	7915
bin	5.4824e-06	7713
bin	5.5536e-06	7788
bin	5.6248e-06	7697
bin	5.696e-06	7786
bin	5.7672e-06	7588
bin	5.8384e-06	7597
bin	5.9096e-06	7510
bin	5.9808e-06	7523
bin	6.052e-06	7522
bin	6.1232e-06	7556
bin	6.1944e-06	7470
bin	6.2656e-06	7435
bin	6.3368e-06	7483
bin	6.408e-06	7334
bin	6.4792e-06	7322
bin	6.5504e-06	7226
bin	6.6216e-06	7254
bin	6.6928e-06	7258
bin	6.764e-06	7218
bin	6.8352e-06	7070
bin	6.9064e-06	7284
bin	6.9776e-06	7260
bin	7.0488e-06	7273
bin	7.12e-06	7058
bin	7.1912e-06	7244
bin	7.2624e-06	7038
bin	7.3336e-06	7096
bin	7.4048e-06	7019
bin	7.476e-06	7121
bin	7.5472e-06	7056
bin	7.6184e-06	7071
bin	7.6896e-06	7108
bin	7.7608e-06	7208
bin	7.832e-06	7167
bin	7.9032e-06	7052
bin	7.9744e-06	6892
bin	8.0456e-06	7054
bin	8.1168e-06	6810
bin	8.188e-06	6814
bin	8.2592e-06	6864
bin	8.3304e-06	6896
bin	8.4016e-06	6806
bin	8.4728e-06	6854
bin	8.544e-06	6965
bin	8.6152e-06	6805
bin	8.6864e-06	6853
bin	8.7576e-06	6847
bin	8.8288e-06	6765
bin	8.9e-06	6860
bin	8.9712e-06	6838
bin	9.0424e-06	6927
bin	9.1136e-06	6721
bin	9.1848e-06	6706
bin	9.256e-06	6793
bin	9.3272e-06	6766
bin	9.3984e-06	6735
bin	9.4696e-06	6560
bin	9.5408e-06	6756
bin	9.612e-06	6737
bin	9.6832e-06	6794
bin	9.7544e-06	6832
bin	9.8256e-06	6636
bin	9.8968e-06	6650
bin	9.968e-06	6506
bin	1.00392e-05	6585
bin	1.01104e-05	6736
bin	1.01816e-05	6556
bin	1.02528e-05	6614
bin	1.0324e-05	6650
bin	1.03952e-05	6766
bin	1.04664e-05	6712
bin	1.05376e-05	6708
bin	1.06088e-05	6691
bin	1.068e-05	6708
bin	1.07512e-05	6693
bin	1.08224e-05	6770
bin	1.08936e-05	6709
bin	1.09648e-05	6703
bin	1.1036e-05	6577
bin	1.11072e-05	6624
bin	1.11784e-05	6481
bin	1.12496e-05	6588
bin	1.13208e-05	6409
bin	1.1392e-05	6551
bin	1.14632e-05	6491
bin	1.15344e-05	6536
bin	1.16056e-05	6616
bin	1.16768e-05	6796
bin	1.1748e-05	6666
bin	1.18192e-05	6664
bin	1.18904e-05	6558
bin	1.19616e-05	6581
bin	1.20328e-05	6680
bin	1.2104e-05	6646
bin	1.21752e-05	6543
bin	1.22464e-05	6626
bin	1.23176e-05	6567
bin	1.23888e-05	6618
bin	1.246e-05	6542
bin	1.25312e-05	6518
bin	1.26024e-05	6520
bin	1.26736e-05	6650
bin	1.27448e-05	6454
bin	1.2816e-05	6484
bin	1.28872e-05	6551
bin	1.29584e-05	6528
bin	1.30296e-05	6513
bin	1.31008e-05	6487
bin	1.3172e-05	6504
bin	1.32432e-05	6513
bin	1.33144e-05	6576
bin	1.33856e-05	6445
bin	1.34568e-05	6470
bin	1.3528e-05	6387
bin	1.35992e-05	6498
bin	1.36704e-05	6456
bin	1.37416e-05	6423
bin	1.38128e-05	6417
bin	1.3884e-05	6462
bin	1.39552e-05	6547
bin	1.40264e-05	6431
bin	1.40976e-05	6469
bin	1.41688e-05	6465
bin	1.424e-05	6464
bin	1.43112e-05	6519
bin	1.43824e-05	6439
bin	1.44536e-05	6491
bin	1.45248e-05	6430
bin	1.4596e-05	6504
bin	1.46672e-05	6477
bin	1.47384e-05	6250
bin	1.48096e-05	6456
bin	1.48808e-05	6415
bin	1.4952e-05	6461
bin	1.50232e-05	6499
bin	1.50944e-05	6664
bin	1.51656e-05	6327
bin	1.52368e-05	6495
bin	1.5308e-05	6415
bin	1.53792e-05	6456
bin	1.54504e-05	6520
bin	1.55216e-05	6353
bin	1.55928e-05	6435
bin	1.5664e-05	6456
bin	1.57352e-05	6494
bin	1.58064e-05	6395
bin	1.58776e-05	6397
bin	1.59488e-05	6507
bin	1.602e-05	6450
bin	1.60912e-05	6313
bin	1.61624e-05	6295
bin	1.62336e-05	6393
bin	1.63048e-05	6300
bin	1.6376e-05	6496
bin	1.64472e-05	6302
bin	1.65184e-05	6481
bin	1.65896e-05	6427
bin	1.66608e-05	6314
bin	1.6732e-05	6488
bin	1.68032e-05	6457
bin	1.68744e-05	6466
bin	1.69456e-05	6420
bin	1.70168e-05	6285
bin	1.7088e-05	6405
bin	1.71592e-05	6248
bin	1.72304e-05	6270
bin	1.73016e-05	6235
bin	1.73728e-05	6371
bin	1.7444e-05	6288
bin	1.75152e-05	6335
bin	1.75864e-05	6373
bin	1.76576e-05	6360
bin	1.77288e-05	6370
bin	1.78e-05	6391
bin	1.78712e-05	6351
bin	1.79424e-05	6372
bin	1.80136e-05	6272
bin	1.80848e-05	6330
bin	1.8156e-05	6309
bin	1.82272e-05	6368
bin	1.82984e-05	6369
bin	1.83696e-05	6384
bin	1.84408e-05	6300
bin	1.8512e-05	6355
bin	1.85832e-05	6358
bin	1.86544e-05	6327
bin	1.87256e-05	6373
bin	1.87968e-05	6433
bin	1.8868e-05	6220
bin	1.89392e-05	6307
bin	1.90104e-05	6395
bin	1.90816e-05	6396
bin	1.91528e-05	6188
bin	1.9224e-05	6331
bin	1.92952e-05	6385
bin	1.93664e-05	6247
bin	1.94376e-05	6353
bin	1.95088e-05	6271
bin	1.958e-05	6309
bin	1.96512e-05	6288
bin	1.97224e-05	6176
bin	1.97936e-05	6133
bin	1.98648e-05	6208
bin	1.9936e-05	6267
bin	2.00072e-05	6201
bin	2.00784e-05	6203
bin	2.01496e-05	6084
bin	2.02208e-05	6205
bin	2.0292e-05	6112
bin	2.03632e-05	6164
bin	2.04344e-05	6100
bin	2.05056e-05	5898
bin	2.05768e-05	6146
bin	2.0648e-05	6084
bin	2.07192e-05	6151
bin	2.07904e-05	6228
bin	2.08616e-05	6204
bin	2.09328e-05	6212
bin	2.1004e-05	6153
bin	2.10752e-05	6246
bin	2.11464e-05	6129
bin	2.12176e-05	6155
bin	2.12888e-05	6180
bin	2.136e-05	6274
bin	2.14312e-05	6241
bin	2.15024e-05	6329
bin	2.15736e-05	6139
bin	2.16448e-05	6269
bin	2.1716e-05	6183
bin	2.17872e-05	6286
bin	2.18584e-05	6172
bin	2.19296e-05	6044
bin	2.20008e-05	6098
bin	2.2072e-05	6200
bin	2.21432e-05	6224
bin	2.22144e-05	6297
bin	2.22856e-05	6163
bin	2.23568e-05	6126
bin	2.2428e-05	6196
bin	2.24992e-05	6303
bin	2.25704e-05	6140
bin	2.26416e-05	6107
bin	2.27128e-05	6309
bin	2.2784e-05	6088
bin	2.28552e-05	6132
bin	2.29264e-05	6206
bin	2.29976e-05	6089
bin	2.30688e-05	6219
bin	2.314e-05	6173
bin	2.32112e-05	6147
bin	2.32824e-05	6114
bin	2.33536e-05	6005
bin	2.34248e-05	6157
bin	2.3496e-05	6072
bin	2.35672e-05	6179
bin	2.36384e-05	6280
bin	2.37096e-05	6285
bin	2.37808e-05	6242
bin	2.3852e-05	6256
bin	2.39232e-05	6248
bin	2.39944e-05	6140
bin	2.40656e-05	6232
bin	2.41368e-05	6266
bin	2.4208e-05	6091
bin	2.42792e-05	6113
bin	2.43504e-05	6066
bin	2.44216e-05	6066
bin	2.44928e-05	6197
bin	2.4564e-05	6155
bin	2.46352e-05	6172
bin	2.47064e-05	6108
bin	2.47776e-05	5980
bin	2.48488e-05	6062
bin	2.492e-05	6221
bin	2.49912e-05	6093
bin	2.50624e-05	6209
bin	2.51336e-05	6093
bin	2.52048e-05	6018
bin	2.5276e-05	6043
bin	2.53472e-05	6121
bin	2.54184e-05	6098
bin	2.54896e-05	6083
bin	2.55608e-05	6151
bin	2.5632e-05	6138
bin	2.57032e-05	6158
bin	2.57744e-05	5960
bin	2.58456e-05	6256
bin	2.59168e-05	6054
bin	2.5988e-05	6163
bin	2.60592e-05	6045
bin	2.61304e-05	6261
bin	2.62016e-05	6172
bin	2.62728e-05	6106
bin	2.6344e-05	6125
bin	2.64152e-05	6066
bin	2.64864e-05	6055
bin	2.65576e-05	6130
bin	2.66288e-05	6077
bin	2.67e-05	5935
bin	2.67712e-05	6022
bin	2.68424e-05	6105
bin	2.69136e-05	6089
bin	2.69848e-05	6107
bin	2.7056e-05	6049
bin	2.71272e-05	6192
bin	2.71984e-05	6003
bin	2.72696e-05	6183
bin	2.73408e-05	6041
bin	2.7412e-05	5993
bin	2.74832e-05	5946
bin	2.75544e-05	6118
bin	2.76256e-05	6103
bin	2.76968e-05	6109
bin	2.7768e-05	6113
bin	2.78392e-05	6034
bin	2.79104e-05	6084
bin	2.79816e-05	6073
bin	2.80528e-05	5985
bin	2.8124e-05	5892
bin	2.81952e-05	5925
bin	2.82664e-05	6002
bin	2.83376e-05	5885
bin	2.84088e-05	6025
bin	2.848e-05	5864
bin	2.85512e-05	5931
bin	2.86224e-05	5818
bin	2.86936e-05	5951
bin	2.87648e-05	5971
bin	2.8836e-05	5995
bin	2.89072e-05	5907
bin	2.89784e-05	5926
bin	2.90496e-05	5977
bin	2.91208e-05	5958
bin	2.9192e-05	6024
bin	2.92632e-05	5893
bin	2.93344e-05	5969
bin	2.94056e-05	6022
bin	2.94768e-05	5963
bin	2.9548e-05	6071
bin	2.96192e-05	5943
bin	2.96904e-05	5923
bin	2.97616e-05	6089
bin	2.98328e-05	5899
bin	2.9904e-05	6059
bin	2.99752e-05	6024
bin	3.00464e-05	5959
bin	3.01176e-05	5972
bin	3.01888e-05	5982
bin	3.026e-05	5924
bin	3.03312e-05	6059
bin	3.04024e-05	5966
bin	3.04736e-05	5872
bin	3.05448e-05	5835
bin	3.0616e-05	5927
bin	3.06872e-05	5861
bin	3.07584e-05	5876
bin	3.08296e-05	5973
bin	3.09008e-05	5933
bin	3.0972e-05	5852
bin	3.10432e-05	5912
bin	3.11144e-05	6054
bin	3.11856e-05	5971
bin	3.12568e-05	5866
bin	3.1328e-05	5908
bin	3.13992e-05	5897
bin	3.14704e-05	5855
bin	3.15416e-05	5931
bin	3.16128e-05	5830
bin	3.1684e-05	6017
bin	3.17552e-05	5956
bin	3.18264e-05	5803
bin	3.18976e-05	5809
bin	3.19688e-05	5855
bin	3.204e-05	5706
bin	3.21112e-05	5766
bin	3.21824e-05	5850
bin	3.22536e-05	5782
bin	3.23248e-05	5855
bin	3.2396e-05	5828
bin	3.24672e-05	5688
bin	3.25384e-05	5723
bin	3.26096e-05	5801
bin	3.26808e-05	5801
bin	3.2752e-05	5809
bin	3.28232e-05	5722
bin	3.28944e-05	5810
bin	3.29656e-05	5919
bin	3.30368e-05	5691
bin	3.3108e-05	5812
bin	3.31792e-05	5739
bin	3.32504e-05	5704
bin	3.33216e-05	5734
bin	3.33928e-05	5702
bin	3.3464e-05	5775
bin	3.35352e-05	5817
bin	3.36064e-05	5709
bin	3.36776e-05	5670
bin	3.37488e-05	5777
bin	3.382e-05	5843
bin	3.38912e-05	5693
bin	3.39624e-05	5830
bin	3.40336e-05	5756
bin	3.41048e-05	5694
bin	3.4176e-05	5751
bin	3.42472e-05	5862
bin	3.43184e-05	5641
bin	3.43896e-05	5724
bin	3.44608e-05	5810
bin	3.4532e-05	5849
bin	3.46032e-05	5722
bin	3.46744e-05	5761
bin	3.47456e-05	5669
bin	3.48168e-05	5651
bin	3.4888e-05	5793
bin	3.49592e-05	5669
bin	3.50304e-05	5769
bin	3.51016e-05	5825
bin	3.51728e-05	5835
bin	3.5244e-05	5769
bin	3.53152e-05	5826
bin	3.53864e-05	5838
bin	3.54576e-05	5859
bin	3.55288e-05	5785
bin	3.56e-05	2725435
statistic Torus3d_bub.timer 	"Life Times"
field count 6291456
field mean 0.0003838793370792
field stddev 0.0002624536400636
field sum 2415.1599585429
field sqrsum 1.3604974609281
field min 2.91999923e-07
field max 0.001539638666665
bin	-INF	0
bin	0	29
bin	8.544e-07	267
bin	1.7088e-06	861
bin	2.5632e-06	1664
bin	3.4176e-06	2685
bin	4.272e-06	3671
bin	5.1264e-06	4561
bin	5.9808e-06	5561
bin	6.8352e-06	6507
bin	7.6896e-06	7744
bin	8.544e-06	8696
bin	9.3984e-06	9778
bin	1.02528e-05	10602
bin	1.11072e-05	11419
bin	1.19616e-05	12305
bin	1.2816e-05	13094
bin	1.36704e-05	14088
bin	1.45248e-05	15167
bin	1.53792e-05	15826
bin	1.62336e-05	16746
bin	1.7088e-05	17683
bin	1.79424e-05	18574
bin	1.87968e-05	19467
bin	1.96512e-05	20088
bin	2.05056e-05	21043
bin	2.136e-05	21879
bin	2.22144e-05	22347
bin	2.30688e-05	22935
bin	2.39232e-05	23129
bin	2.47776e-05	23040
bin	2.5632e-05	22498
bin	2.64864e-05	21580
bin	2.73408e-05	20441
bin	2.81952e-05	19685
bin	2.90496e-05	18703
bin	2.9904e-05	17918
bin	3.07584e-05	16696
bin	3.16128e-05	16087
bin	3.24672e-05	15336
bin	3.33216e-05	14362
bin	3.4176e-05	13811
bin	3.50304e-05	13076
bin	3.58848e-05	12391
bin	3.67392e-05	11955
bin	3.75936e-05	11548
bin	3.8448e-05	11433
bin	3.93024e-05	10948
bin	4.01568e-05	10744
bin	4.10112e-05	10447
bin	4.18656e-05	10401
bin	4.272e-05	10116
bin	4.35744e-05	9857
bin	4.44288e-05	10080
bin	4.52832e-05	9716
bin	4.61376e-05	9748
bin	4.6992e-05	9771
bin	4.78464e-05	9653
bin	4.87008e-05	9628
bin	4.95552e-05	9464
bin	5.04096e-05	9451
bin	5.1264e-05	9374
bin	5.21184e-05	9298
bin	5.29728e-05	9089
bin	5.38272e-05	8991
bin	5.46816e-05	8769
bin	5.5536e-05	8562
bin	5.63904e-05	8376
bin	5.72448e-05	8269
bin	5.80992e-05	8158
bin	5.89536e-05	8083
bin	5.9808e-05	7981
bin	6.06624e-05	7796
bin	6.15168e-05	7870
bin	6.23712e-05	7752
bin	6.32256e-05	7834
bin	6.408e-05	7620
bin	6.49344e-05	7552
bin	6.57888e-05	7408
bin	6.66432e-05	7377
bin	6.74976e-05	7262
bin	6.8352e-05	7286
bin	6.92064e-05	7358
bin	7.00608e-05	7496
bin	7.09152e-05	7363
bin	7.17696e-05	7299
bin	7.2624e-05	7226
bin	7.34784e-05	7417
bin	7.43328e-05	7318
bin	7.51872e-05	7096
bin	7.60416e-05	7253
bin	7.6896e-05	7278
bin	7.77504e-05	7284
bin	7.86048e-05	7234
bin	7.94592e-05	7018
bin	8.03136e-05	7103
bin	8.1168e-05	6953
bin	8.20224e-05	6821
bin	8.28768e-05	7035
bin	8.37312e-05	7068
bin	8.45856e-05	6980
bin	8.544e-05	7055
bin	8.62944e-05	6971
bin	8.71488e-05	6972
bin	8.80032e-05	6906
bin	8.88576e-05	6896
bin	8.9712e-05	6687
bin	9.05664e-05	6806
bin	9.14208e-05	6842
bin	9.22752e-05	6898
bin	9.31296e-05	6870
bin	9.3984e-05	7011
bin	9.48384e-05	6797
bin	9.56928e-05	6753
bin	9.65472e-05	6896
bin	9.74016e-05	6914
bin	9.8256e-05	6919
bin	9.91104e-05	6853
bin	9.99648e-05	6742
bin	0.0001008192	6865
bin	0.0001016736	6687
bin	0.000102528	6870
bin	0.0001033824	6731
bin	0.0001042368	6629
bin	0.0001050912	6833
bin	0.0001059456	6797
bin	0.0001068	6866
bin	0.0001076544	6730
bin	0.0001085088	6617
bin	0.0001093632	6536
bin	0.0001102176	6610
bin	0.000111072	6687
bin	0.0001119264	6649
bin	0.0001127808	6825
bin	0.0001136352	6747
bin	0.0001144896	6644
bin	0.000115344	6726
bin	0.0001161984	6780
bin	0.0001170528	6792
bin	0.0001179072	6711
bin	0.0001187616	6640
bin	0.000119616	6871
bin	0.0001204704	6731
bin	0.0001213248	6657
bin	0.0001221792	6688
bin	0.0001230336	6756
bin	0.000123888	6834
bin	0.0001247424	6871
bin	0.0001255968	6744
bin	0.0001264512	6845
bin	0.0001273056	6802
bin	0.00012816	6652
bin	0.0001290144	6648
bin	0.0001298688	6693
bin	0.0001307232	6569
bin	0.0001315776	6702
bin	0.000132432	6612
bin	0.0001332864	6471
bin	0.0001341408	6630
bin	0.0001349952	6780
bin	0.0001358496	6651
bin	0.000136704	6684
bin	0.0001375584	6585
bin	0.0001384128	6694
bin	0.0001392672	6592
bin	0.0001401216	6761
bin	0.000140976	6579
bin	0.0001418304	6609
bin	0.0001426848	6792
bin	0.0001435392	6681
bin	0.0001443936	6689
bin	0.000145248	6707
bin	0.0001461024	6707
bin	0.0001469568	6669
bin	0.0001478112	6664
bin	0.0001486656	6658
bin	0.00014952	6667
bin	0.0001503744	6567
bin	0.0001512288	6701
bin	0.0001520832	6684
bin	0.0001529376	6661
bin	0.000153792	6608
bin	0.0001546464	6611
bin	0.0001555008	6658
bin	0.0001563552	6518
bin	0.0001572096	6534
bin	0.000158064	6528
bin	0.0001589184	6621
bin	0.0001597728	6667
bin	0.0001606272	6530
bin	0.0001614816	6536
bin	0.000162336	6529
bin	0.0001631904	6532
bin	0.0001640448	6392
bin	0.0001648992	6546
bin	0.0001657536	6513
bin	0.000166608	6461
bin	0.0001674624	6606
bin	0.0001683168	6550
bin	0.0001691712	6457
bin	0.0001700256	6595
bin	0.00017088	6491
bin	0.0001717344	6466
bin	0.0001725888	6483
bin	0.0001734432	6473
bin	0.0001742976	6348
bin	0.000175152	6468
bin	0.0001760064	6332
bin	0.0001768608	6282
bin	0.0001777152	6265
bin	0.0001785696	6409
bin	0.000179424	6160
bin	0.0001802784	6208
bin	0.0001811328	6218
bin	0.0001819872	6266
bin	0.0001828416	6175
bin	0.000183696	6122
bin	0.0001845504	6189
bin	0.0001854048	6237
bin	0.0001862592	6250
bin	0.0001871136	6263
bin	0.000187968	6169
bin	0.0001888224	6191
bin	0.0001896768	6279
bin	0.0001905312	6116
bin	0.0001913856	6241
bin	0.00019224	6281
bin	0.0001930944	6081
bin	0.0001939488	6057
bin	0.0001948032	6235
bin	0.0001956576	6171
bin	0.000196512	6240
bin	0.0001973664	6201
bin	0.0001982208	6048
bin	0.0001990752	6152
bin	0.0001999296	6153
bin	0.000200784	6132
bin	0.0002016384	6127
bin	0.0002024928	6235
bin	0.0002033472	6214
bin	0.0002042016	6199
bin	0.000205056	6184
bin	0.0002059104	6286
bin	0.0002067648	6291
bin	0.0002076192	6316
bin	0.0002084736	6378
bin	0.000209328	6350
bin	0.0002101824	6259
bin	0.0002110368	6456
bin	0.0002118912	6216
bin	0.0002127456	6323
bin	0.0002136	6234
bin	0.0002144544	6362
bin	0.0002153088	6449
bin	0.0002161632	6413
bin	0.0002170176	6281
bin	0.000217872	6327
bin	0.0002187264	6217
bin	0.0002195808	6558
bin	0.0002204352	6402
bin	0.0002212896	6310
bin	0.000222144	6474
bin	0.0002229984	6467
bin	0.0002238528	6408
bin	0.0002247072	6245
bin	0.0002255616	6434
bin	0.000226416	6473
bin	0.0002272704	6378
bin	0.0002281248	6292
bin	0.0002289792	6574
bin	0.0002298336	6536
bin	0.000230688	6492
bin	0.0002315424	6395
bin	0.0002323968	6406
bin	0.0002332512	6383
bin	0.0002341056	6484
bin	0.00023496	6543
bin	0.0002358144	6570
bin	0.0002366688	6541
bin	0.0002375232	6465
bin	0.0002383776	6484
bin	0.000239232	6546
bin	0.0002400864	6502
bin	0.0002409408	6512
bin	0.0002417952	6545
bin	0.0002426496	6466
bin	0.000243504	6435
bin	0.0002443584	6448
bin	0.0002452128	6484
bin	0.0002460672	6455
bin	0.0002469216	6501
bin	0.000247776	6339
bin	0.0002486304	6450
bin	0.0002494848	6386
bin	0.0002503392	6513
bin	0.0002511936	6351
bin	0.000252048	6369
bin	0.0002529024	6413
bin	0.0002537568	6438
bin	0.0002546112	6324
bin	0.0002554656	6361
bin	0.00025632	6405
bin	0.0002571744	6313
bin	0.0002580288	6417
bin	0.0002588832	6425
bin	0.0002597376	6435
bin	0.000260592	6321
bin	0.0002614464	6300
bin	0.0002623008	6414
bin	0.0002631552	6348
bin	0.0002640096	6386
bin	0.000264864	6294
bin	0.0002657184	6400
bin	0.0002665728	6250
bin	0.0002674272	6389
bin	0.0002682816	6232
bin	0.000269136	6244
bin	0.0002699904	6339
bin	0.0002708448	6305
bin	0.0002716992	6293
bin	0.0002725536	6473
bin	0.000273408	6157
bin	0.0002742624	6152
bin	0.0002751168	6347
bin	0.0002759712	6228
bin	0.0002768256	6280
bin	0.00027768	6211
bin	0.0002785344	6253
bin	0.0002793888	6380
bin	0.0002802432	6362
bin	0.0002810976	6291
bin	0.000281952	6221
bin	0.0002828064	6156
bin	0.0002836608	6130
bin	0.0002845152	6166
bin	0.0002853696	6238
bin	0.000286224	6152
bin	0.0002870784	6245
bin	0.0002879328	6199
bin	0.0002887872	6194
bin	0.0002896416	6247
bin	0.000290496	6144
bin	0.0002913504	6307
bin	0.0002922048	6353
bin	0.0002930592	6289
bin	0.0002939136	6385
bin	0.000294768	6273
bin	0.0002956224	6276
bin	0.0002964768	6277
bin	0.0002973312	6047
bin	0.0002981856	6184
bin	0.00029904	6149
bin	0.0002998944	6200
bin	0.0003007488	6134
bin	0.0003016032	6171
bin	0.0003024576	6226
bin	0.000303312	6165
bin	0.0003041664	6239
bin	0.0003050208	6226
bin	0.0003058752	6206
bin	0.0003067296	6223
bin	0.000307584	6072
bin	0.0003084384	6191
bin	0.0003092928	6038
bin	0.0003101472	6164
bin	0.0003110016	6133
bin	0.000311856	6081
bin	0.0003127104	5975
bin	0.0003135648	5976
bin	0.0003144192	5998
bin	0.0003152736	5997
bin	0.000316128	6096
bin	0.0003169824	5973
bin	0.0003178368	6039
bin	0.0003186912	6055
bin	0.0003195456	5927
bin	0.0003204	6030
bin	0.0003212544	6004
bin	0.0003221088	5935
bin	0.0003229632	6148
bin	0.0003238176	6156
bin	0.000324672	6043
bin	0.0003255264	6060
bin	0.0003263808	6071
bin	0.0003272352	6219
bin	0.0003280896	6164
bin	0.000328944	6056
bin	0.0003297984	6124
bin	0.0003306528	6132
bin	0.0003315072	6169
bin	0.0003323616	6212
bin	0.000333216	6098
bin	0.0003340704	6102
bin	0.0003349248	6007
bin	0.0003357792	6014
bin	0.0003366336	6004
bin	0.000337488	6002
bin	0.0003383424	5989
bin	0.0003391968	5838
bin	0.0003400512	5889
bin	0.0003409056	6079
bin	0.00034176	5992
bin	0.0003426144	5933
bin	0.0003434688	6060
bin	0.0003443232	6102
bin	0.0003451776	5919
bin	0.000346032	5964
bin	0.0003468864	5876
bin	0.0003477408	5935
bin	0.0003485952	5956
bin	0.0003494496	5878
bin	0.000350304	5926
bin	0.0003511584	5949
bin	0.0003520128	5801
bin	0.0003528672	5967
bin	0.0003537216	5958
bin	0.000354576	5983
bin	0.0003554304	6009
bin	0.0003562848	5911
bin	0.0003571392	5946
bin	0.0003579936	5858
bin	0.000358848	6029
bin	0.0003597024	6017
bin	0.0003605568	6035
bin	0.0003614112	6099
bin	0.0003622656	5943
bin	0.00036312	5856
bin	0.0003639744	5920
bin	0.0003648288	5831
bin	0.0003656832	5981
bin	0.0003665376	5711
bin	0.000367392	5865
bin	0.0003682464	5845
bin	0.0003691008	5995
bin	0.0003699552	5943
bin	0.0003708096	5989
bin	0.000371664	5948
bin	0.0003725184	5926
bin	0.0003733728	5802
bin	0.0003742272	5926
bin	0.0003750816	5929
bin	0.000375936	5930
bin	0.0003767904	5826
bin	0.0003776448	5847
bin	0.0003784992	5984
bin	0.0003793536	6036
bin	0.000380208	6061
bin	0.0003810624	5949
bin	0.0003819168	6002
bin	0.0003827712	6052
bin	0.0003836256	6082
bin	0.00038448	6044
bin	0.0003853344	6049
bin	0.0003861888	6137
bin	0.0003870432	6068
bin	0.0003878976	6083
bin	0.000388752	6064
bin	0.0003896064	6053
bin	0.0003904608	6036
bin	0.0003913152	6098
bin	0.0003921696	6222
bin	0.000393024	6015
bin	0.0003938784	6071
bin	0.0003947328	6039
bin	0.0003955872	6099
bin	0.0003964416	5932
bin	0.000397296	6031
bin	0.0003981504	6095
bin	0.0003990048	6040
bin	0.0003998592	6028
bin	0.0004007136	6110
bin	0.000401568	6071
bin	0.0004024224	5921
bin	0.0004032768	5934
bin	0.0004041312	5990
bin	0.0004049856	6080
bin	0.00040584	5917
bin	0.0004066944	6004
bin	0.0004075488	5997
bin	0.0004084032	6006
bin	0.0004092576	5902
bin	0.000410112	5869
bin	0.0004109664	5939
bin	0.0004118208	5857
bin	0.0004126752	5773
bin	0.0004135296	5845
bin	0.000414384	5868
bin	0.0004152384	5873
bin	0.0004160928	5809
bin	0.0004169472	5865
bin	0.0004178016	5828
bin	0.000418656	5843
bin	0.0004195104	5795
bin	0.0004203648	5910
bin	0.0004212192	5901
bin	0.0004220736	5780
bin	0.000422928	5891
bin	0.0004237824	5887
bin	0.0004246368	5867
bin	0.0004254912	5815
bin	0.0004263456	5810
bin	0.0004272	2696949
