version 2
run Uniform-33-20120709-16:56:21-24747
attr alg 1
attr buf 8
attr configname Uniform
attr datetime 20120709-16:56:21
attr delta 0.8
attr experiment Uniform
attr ext true
attr inifile altro.ini
attr iterationvars "$buf=8, $ext=true, $ofedge=2, $delta=0.8, $alg=1"
attr iterationvars2 "$buf=8, $ext=true, $ofedge=2, $delta=0.8, $alg=1, $repetition=0"
attr measurement "$buf=8, $ext=true, $ofedge=2, $delta=0.8, $alg=1"
attr network Torus3d_bub
attr ofedge 2
attr processid 24747
attr repetition 0
attr replication #0
attr resultdir altro-results
attr runnumber 33
attr seedset 33

scalar . 	alg 	1
scalar . 	buf 	8
scalar . 	delta 	0.8
scalar . 	ofedge 	2
scalar Torus3d_bub.timer 	#endTime 	0.001872702997098
scalar Torus3d_bub.timer 	#totalHops 	89894593
scalar Torus3d_bub.timer 	#totalPacks 	6291456
scalar Torus3d_bub.timer 	#totalDerouted 	2096571
scalar Torus3d_bub.timer 	#totalOutFlanked 	2096571
scalar Torus3d_bub.timer 	#totalCQRed 	0
scalar Torus3d_bub.timer 	#LB 	0.000786432
scalar Torus3d_bub.timer 	#ratio 	0.41994486110114
statistic Torus3d_bub.timer 	"Hop Times"
field count 6289728
field mean 2.6955707819197e-05
field stddev 3.2475366709535e-05
field sum 169.54407023022
field sqrsum 0.011203637496264
field min 4.00370364e-07
field max 0.000978440998957
bin	-INF	0
bin	0	0
bin	7.12e-08	0
bin	1.424e-07	0
bin	2.136e-07	0
bin	2.848e-07	0
bin	3.56e-07	48
bin	4.272e-07	1086
bin	4.984e-07	3081
bin	5.696e-07	5308
bin	6.408e-07	8089
bin	7.12e-07	11124
bin	7.832e-07	13968
bin	8.544e-07	16275
bin	9.256e-07	18799
bin	9.968e-07	21206
bin	1.068e-06	23911
bin	1.1392e-06	27109
bin	1.2104e-06	30650
bin	1.2816e-06	34659
bin	1.3528e-06	39808
bin	1.424e-06	44793
bin	1.4952e-06	49916
bin	1.5664e-06	54565
bin	1.6376e-06	57867
bin	1.7088e-06	60804
bin	1.78e-06	62244
bin	1.8512e-06	63345
bin	1.9224e-06	63021
bin	1.9936e-06	61919
bin	2.0648e-06	60541
bin	2.136e-06	58322
bin	2.2072e-06	55455
bin	2.2784e-06	52367
bin	2.3496e-06	49704
bin	2.4208e-06	46556
bin	2.492e-06	44120
bin	2.5632e-06	41610
bin	2.6344e-06	39012
bin	2.7056e-06	36960
bin	2.7768e-06	34695
bin	2.848e-06	32604
bin	2.9192e-06	30923
bin	2.9904e-06	29134
bin	3.0616e-06	27710
bin	3.1328e-06	26437
bin	3.204e-06	24670
bin	3.2752e-06	23366
bin	3.3464e-06	22560
bin	3.4176e-06	21575
bin	3.4888e-06	20313
bin	3.56e-06	19647
bin	3.6312e-06	18843
bin	3.7024e-06	18084
bin	3.7736e-06	17539
bin	3.8448e-06	16666
bin	3.916e-06	16070
bin	3.9872e-06	15625
bin	4.0584e-06	15350
bin	4.1296e-06	14710
bin	4.2008e-06	14205
bin	4.272e-06	13911
bin	4.3432e-06	13379
bin	4.4144e-06	13085
bin	4.4856e-06	12831
bin	4.5568e-06	12484
bin	4.628e-06	12346
bin	4.6992e-06	11932
bin	4.7704e-06	11890
bin	4.8416e-06	11357
bin	4.9128e-06	11140
bin	4.984e-06	10940
bin	5.0552e-06	10771
bin	5.1264e-06	10561
bin	5.1976e-06	10354
bin	5.2688e-06	10090
bin	5.34e-06	10001
bin	5.4112e-06	9624
bin	5.4824e-06	9736
bin	5.5536e-06	9836
bin	5.6248e-06	9652
bin	5.696e-06	9450
bin	5.7672e-06	9455
bin	5.8384e-06	9216
bin	5.9096e-06	9169
bin	5.9808e-06	8980
bin	6.052e-06	8856
bin	6.1232e-06	8748
bin	6.1944e-06	8688
bin	6.2656e-06	8606
bin	6.3368e-06	8629
bin	6.408e-06	8529
bin	6.4792e-06	8528
bin	6.5504e-06	8246
bin	6.6216e-06	8278
bin	6.6928e-06	8099
bin	6.764e-06	8183
bin	6.8352e-06	8207
bin	6.9064e-06	8108
bin	6.9776e-06	8072
bin	7.0488e-06	7980
bin	7.12e-06	7928
bin	7.1912e-06	7913
bin	7.2624e-06	7855
bin	7.3336e-06	7894
bin	7.4048e-06	7846
bin	7.476e-06	7655
bin	7.5472e-06	7656
bin	7.6184e-06	7597
bin	7.6896e-06	7488
bin	7.7608e-06	7647
bin	7.832e-06	7447
bin	7.9032e-06	7602
bin	7.9744e-06	7338
bin	8.0456e-06	7566
bin	8.1168e-06	7483
bin	8.188e-06	7461
bin	8.2592e-06	7505
bin	8.3304e-06	7401
bin	8.4016e-06	7305
bin	8.4728e-06	7364
bin	8.544e-06	7277
bin	8.6152e-06	7237
bin	8.6864e-06	7146
bin	8.7576e-06	7098
bin	8.8288e-06	7084
bin	8.9e-06	7207
bin	8.9712e-06	7308
bin	9.0424e-06	7346
bin	9.1136e-06	7104
bin	9.1848e-06	7108
bin	9.256e-06	7105
bin	9.3272e-06	7096
bin	9.3984e-06	6994
bin	9.4696e-06	7055
bin	9.5408e-06	7058
bin	9.612e-06	6859
bin	9.6832e-06	6824
bin	9.7544e-06	6884
bin	9.8256e-06	6977
bin	9.8968e-06	6970
bin	9.968e-06	6937
bin	1.00392e-05	6906
bin	1.01104e-05	6888
bin	1.01816e-05	6949
bin	1.02528e-05	6960
bin	1.0324e-05	6891
bin	1.03952e-05	6790
bin	1.04664e-05	6913
bin	1.05376e-05	6834
bin	1.06088e-05	6659
bin	1.068e-05	6492
bin	1.07512e-05	6724
bin	1.08224e-05	6684
bin	1.08936e-05	6734
bin	1.09648e-05	6725
bin	1.1036e-05	6542
bin	1.11072e-05	6756
bin	1.11784e-05	6655
bin	1.12496e-05	6615
bin	1.13208e-05	6715
bin	1.1392e-05	6733
bin	1.14632e-05	6620
bin	1.15344e-05	6607
bin	1.16056e-05	6637
bin	1.16768e-05	6674
bin	1.1748e-05	6532
bin	1.18192e-05	6521
bin	1.18904e-05	6451
bin	1.19616e-05	6431
bin	1.20328e-05	6427
bin	1.2104e-05	6655
bin	1.21752e-05	6613
bin	1.22464e-05	6364
bin	1.23176e-05	6557
bin	1.23888e-05	6349
bin	1.246e-05	6417
bin	1.25312e-05	6506
bin	1.26024e-05	6478
bin	1.26736e-05	6174
bin	1.27448e-05	6419
bin	1.2816e-05	6263
bin	1.28872e-05	6403
bin	1.29584e-05	6478
bin	1.30296e-05	6395
bin	1.31008e-05	6424
bin	1.3172e-05	6342
bin	1.32432e-05	6494
bin	1.33144e-05	6288
bin	1.33856e-05	6397
bin	1.34568e-05	6339
bin	1.3528e-05	6332
bin	1.35992e-05	6262
bin	1.36704e-05	6427
bin	1.37416e-05	6307
bin	1.38128e-05	6178
bin	1.3884e-05	6228
bin	1.39552e-05	6199
bin	1.40264e-05	6182
bin	1.40976e-05	6151
bin	1.41688e-05	6114
bin	1.424e-05	6042
bin	1.43112e-05	6229
bin	1.43824e-05	6258
bin	1.44536e-05	6054
bin	1.45248e-05	6036
bin	1.4596e-05	6036
bin	1.46672e-05	6211
bin	1.47384e-05	6226
bin	1.48096e-05	6048
bin	1.48808e-05	6074
bin	1.4952e-05	6207
bin	1.50232e-05	6154
bin	1.50944e-05	6073
bin	1.51656e-05	6264
bin	1.52368e-05	5964
bin	1.5308e-05	6138
bin	1.53792e-05	6231
bin	1.54504e-05	6157
bin	1.55216e-05	6213
bin	1.55928e-05	6078
bin	1.5664e-05	6058
bin	1.57352e-05	6027
bin	1.58064e-05	6130
bin	1.58776e-05	6123
bin	1.59488e-05	6069
bin	1.602e-05	6095
bin	1.60912e-05	6038
bin	1.61624e-05	6039
bin	1.62336e-05	6201
bin	1.63048e-05	6158
bin	1.6376e-05	5924
bin	1.64472e-05	6058
bin	1.65184e-05	6037
bin	1.65896e-05	6202
bin	1.66608e-05	6044
bin	1.6732e-05	6071
bin	1.68032e-05	5844
bin	1.68744e-05	6139
bin	1.69456e-05	5939
bin	1.70168e-05	5933
bin	1.7088e-05	5965
bin	1.71592e-05	5900
bin	1.72304e-05	5891
bin	1.73016e-05	5909
bin	1.73728e-05	5901
bin	1.7444e-05	5854
bin	1.75152e-05	5815
bin	1.75864e-05	5724
bin	1.76576e-05	5771
bin	1.77288e-05	5861
bin	1.78e-05	5759
bin	1.78712e-05	5717
bin	1.79424e-05	5806
bin	1.80136e-05	5928
bin	1.80848e-05	5849
bin	1.8156e-05	5813
bin	1.82272e-05	5801
bin	1.82984e-05	5845
bin	1.83696e-05	5713
bin	1.84408e-05	5845
bin	1.8512e-05	5728
bin	1.85832e-05	5637
bin	1.86544e-05	5680
bin	1.87256e-05	5578
bin	1.87968e-05	5796
bin	1.8868e-05	5693
bin	1.89392e-05	5653
bin	1.90104e-05	5635
bin	1.90816e-05	5666
bin	1.91528e-05	5694
bin	1.9224e-05	5663
bin	1.92952e-05	5662
bin	1.93664e-05	5808
bin	1.94376e-05	5730
bin	1.95088e-05	5769
bin	1.958e-05	5671
bin	1.96512e-05	5685
bin	1.97224e-05	5676
bin	1.97936e-05	5685
bin	1.98648e-05	5672
bin	1.9936e-05	5605
bin	2.00072e-05	5547
bin	2.00784e-05	5551
bin	2.01496e-05	5442
bin	2.02208e-05	5516
bin	2.0292e-05	5528
bin	2.03632e-05	5478
bin	2.04344e-05	5551
bin	2.05056e-05	5562
bin	2.05768e-05	5544
bin	2.0648e-05	5555
bin	2.07192e-05	5582
bin	2.07904e-05	5457
bin	2.08616e-05	5422
bin	2.09328e-05	5660
bin	2.1004e-05	5626
bin	2.10752e-05	5511
bin	2.11464e-05	5492
bin	2.12176e-05	5421
bin	2.12888e-05	5628
bin	2.136e-05	5624
bin	2.14312e-05	5607
bin	2.15024e-05	5557
bin	2.15736e-05	5567
bin	2.16448e-05	5554
bin	2.1716e-05	5528
bin	2.17872e-05	5617
bin	2.18584e-05	5456
bin	2.19296e-05	5461
bin	2.20008e-05	5521
bin	2.2072e-05	5502
bin	2.21432e-05	5384
bin	2.22144e-05	5416
bin	2.22856e-05	5475
bin	2.23568e-05	5408
bin	2.2428e-05	5465
bin	2.24992e-05	5477
bin	2.25704e-05	5424
bin	2.26416e-05	5338
bin	2.27128e-05	5500
bin	2.2784e-05	5473
bin	2.28552e-05	5380
bin	2.29264e-05	5392
bin	2.29976e-05	5325
bin	2.30688e-05	5339
bin	2.314e-05	5577
bin	2.32112e-05	5269
bin	2.32824e-05	5350
bin	2.33536e-05	5420
bin	2.34248e-05	5517
bin	2.3496e-05	5445
bin	2.35672e-05	5197
bin	2.36384e-05	5334
bin	2.37096e-05	5532
bin	2.37808e-05	5452
bin	2.3852e-05	5325
bin	2.39232e-05	5249
bin	2.39944e-05	5245
bin	2.40656e-05	5357
bin	2.41368e-05	5403
bin	2.4208e-05	5325
bin	2.42792e-05	5371
bin	2.43504e-05	5291
bin	2.44216e-05	5236
bin	2.44928e-05	5317
bin	2.4564e-05	5414
bin	2.46352e-05	5283
bin	2.47064e-05	5381
bin	2.47776e-05	5370
bin	2.48488e-05	5324
bin	2.492e-05	5333
bin	2.49912e-05	5181
bin	2.50624e-05	5343
bin	2.51336e-05	5469
bin	2.52048e-05	5286
bin	2.5276e-05	5451
bin	2.53472e-05	5415
bin	2.54184e-05	5369
bin	2.54896e-05	5234
bin	2.55608e-05	5505
bin	2.5632e-05	5371
bin	2.57032e-05	5487
bin	2.57744e-05	5361
bin	2.58456e-05	5367
bin	2.59168e-05	5232
bin	2.5988e-05	5318
bin	2.60592e-05	5325
bin	2.61304e-05	5323
bin	2.62016e-05	5308
bin	2.62728e-05	5527
bin	2.6344e-05	5323
bin	2.64152e-05	5354
bin	2.64864e-05	5428
bin	2.65576e-05	5315
bin	2.66288e-05	5229
bin	2.67e-05	5323
bin	2.67712e-05	5263
bin	2.68424e-05	5281
bin	2.69136e-05	5264
bin	2.69848e-05	5227
bin	2.7056e-05	5323
bin	2.71272e-05	5191
bin	2.71984e-05	5288
bin	2.72696e-05	5380
bin	2.73408e-05	5424
bin	2.7412e-05	5274
bin	2.74832e-05	5278
bin	2.75544e-05	5348
bin	2.76256e-05	5193
bin	2.76968e-05	5256
bin	2.7768e-05	5265
bin	2.78392e-05	5199
bin	2.79104e-05	5347
bin	2.79816e-05	5179
bin	2.80528e-05	5289
bin	2.8124e-05	5303
bin	2.81952e-05	5268
bin	2.82664e-05	5236
bin	2.83376e-05	5331
bin	2.84088e-05	5221
bin	2.848e-05	5343
bin	2.85512e-05	5218
bin	2.86224e-05	5219
bin	2.86936e-05	5322
bin	2.87648e-05	5272
bin	2.8836e-05	5243
bin	2.89072e-05	5309
bin	2.89784e-05	5360
bin	2.90496e-05	5305
bin	2.91208e-05	5170
bin	2.9192e-05	5174
bin	2.92632e-05	5300
bin	2.93344e-05	5254
bin	2.94056e-05	5201
bin	2.94768e-05	5335
bin	2.9548e-05	5311
bin	2.96192e-05	5091
bin	2.96904e-05	5190
bin	2.97616e-05	5326
bin	2.98328e-05	5230
bin	2.9904e-05	5474
bin	2.99752e-05	5243
bin	3.00464e-05	5204
bin	3.01176e-05	5229
bin	3.01888e-05	5256
bin	3.026e-05	5261
bin	3.03312e-05	5236
bin	3.04024e-05	5114
bin	3.04736e-05	5179
bin	3.05448e-05	5163
bin	3.0616e-05	5218
bin	3.06872e-05	5209
bin	3.07584e-05	5099
bin	3.08296e-05	5168
bin	3.09008e-05	5341
bin	3.0972e-05	5219
bin	3.10432e-05	5259
bin	3.11144e-05	5265
bin	3.11856e-05	5134
bin	3.12568e-05	5157
bin	3.1328e-05	5310
bin	3.13992e-05	5138
bin	3.14704e-05	5135
bin	3.15416e-05	5255
bin	3.16128e-05	5270
bin	3.1684e-05	5349
bin	3.17552e-05	5154
bin	3.18264e-05	5257
bin	3.18976e-05	5157
bin	3.19688e-05	5125
bin	3.204e-05	5144
bin	3.21112e-05	5273
bin	3.21824e-05	5091
bin	3.22536e-05	5233
bin	3.23248e-05	5052
bin	3.2396e-05	5148
bin	3.24672e-05	5225
bin	3.25384e-05	5200
bin	3.26096e-05	5247
bin	3.26808e-05	5209
bin	3.2752e-05	5084
bin	3.28232e-05	5109
bin	3.28944e-05	5154
bin	3.29656e-05	5163
bin	3.30368e-05	5043
bin	3.3108e-05	5075
bin	3.31792e-05	5146
bin	3.32504e-05	5062
bin	3.33216e-05	5131
bin	3.33928e-05	5134
bin	3.3464e-05	5165
bin	3.35352e-05	5111
bin	3.36064e-05	5054
bin	3.36776e-05	4975
bin	3.37488e-05	5096
bin	3.382e-05	5053
bin	3.38912e-05	5226
bin	3.39624e-05	5181
bin	3.40336e-05	5023
bin	3.41048e-05	4955
bin	3.4176e-05	4981
bin	3.42472e-05	5002
bin	3.43184e-05	5122
bin	3.43896e-05	5027
bin	3.44608e-05	5102
bin	3.4532e-05	4891
bin	3.46032e-05	4962
bin	3.46744e-05	4990
bin	3.47456e-05	5033
bin	3.48168e-05	5077
bin	3.4888e-05	5059
bin	3.49592e-05	5019
bin	3.50304e-05	4875
bin	3.51016e-05	4948
bin	3.51728e-05	4956
bin	3.5244e-05	4951
bin	3.53152e-05	5044
bin	3.53864e-05	5030
bin	3.54576e-05	5052
bin	3.55288e-05	4957
bin	3.56e-05	1850270
statistic Torus3d_bub.timer 	"Life Times"
field count 6291456
field mean 0.00034085578916049
field stddev 0.0003003677163724
field sum 2144.4791998485
field sqrsum 1.2985780333096
field min 3.77332757e-07
field max 0.001606815666282
bin	-INF	0
bin	0	79
bin	8.544e-07	510
bin	1.7088e-06	1610
bin	2.5632e-06	3319
bin	3.4176e-06	5005
bin	4.272e-06	6786
bin	5.1264e-06	8685
bin	5.9808e-06	10801
bin	6.8352e-06	12823
bin	7.6896e-06	15164
bin	8.544e-06	17493
bin	9.3984e-06	19814
bin	1.02528e-05	21671
bin	1.11072e-05	22850
bin	1.19616e-05	24286
bin	1.2816e-05	26111
bin	1.36704e-05	27381
bin	1.45248e-05	29586
bin	1.53792e-05	30989
bin	1.62336e-05	32473
bin	1.7088e-05	34534
bin	1.79424e-05	36074
bin	1.87968e-05	38182
bin	1.96512e-05	40063
bin	2.05056e-05	41685
bin	2.136e-05	43645
bin	2.22144e-05	45213
bin	2.30688e-05	46604
bin	2.39232e-05	48086
bin	2.47776e-05	49296
bin	2.5632e-05	50043
bin	2.64864e-05	50361
bin	2.73408e-05	50689
bin	2.81952e-05	50870
bin	2.90496e-05	50367
bin	2.9904e-05	49586
bin	3.07584e-05	48376
bin	3.16128e-05	45740
bin	3.24672e-05	42568
bin	3.33216e-05	39967
bin	3.4176e-05	37188
bin	3.50304e-05	34321
bin	3.58848e-05	31853
bin	3.67392e-05	29408
bin	3.75936e-05	27393
bin	3.8448e-05	25104
bin	3.93024e-05	23201
bin	4.01568e-05	21239
bin	4.10112e-05	19368
bin	4.18656e-05	17979
bin	4.272e-05	16782
bin	4.35744e-05	15847
bin	4.44288e-05	15406
bin	4.52832e-05	14483
bin	4.61376e-05	13936
bin	4.6992e-05	13696
bin	4.78464e-05	13249
bin	4.87008e-05	12921
bin	4.95552e-05	12621
bin	5.04096e-05	12617
bin	5.1264e-05	12405
bin	5.21184e-05	12375
bin	5.29728e-05	11939
bin	5.38272e-05	11996
bin	5.46816e-05	11891
bin	5.5536e-05	12040
bin	5.63904e-05	11696
bin	5.72448e-05	11534
bin	5.80992e-05	11565
bin	5.89536e-05	11642
bin	5.9808e-05	11545
bin	6.06624e-05	11499
bin	6.15168e-05	11310
bin	6.23712e-05	11374
bin	6.32256e-05	10914
bin	6.408e-05	10696
bin	6.49344e-05	10415
bin	6.57888e-05	9902
bin	6.66432e-05	9777
bin	6.74976e-05	9396
bin	6.8352e-05	9332
bin	6.92064e-05	8742
bin	7.00608e-05	8457
bin	7.09152e-05	8346
bin	7.17696e-05	8078
bin	7.2624e-05	7927
bin	7.34784e-05	7519
bin	7.43328e-05	7539
bin	7.51872e-05	7508
bin	7.60416e-05	7357
bin	7.6896e-05	7317
bin	7.77504e-05	7198
bin	7.86048e-05	7111
bin	7.94592e-05	6964
bin	8.03136e-05	7049
bin	8.1168e-05	7114
bin	8.20224e-05	6948
bin	8.28768e-05	6834
bin	8.37312e-05	6832
bin	8.45856e-05	6736
bin	8.544e-05	6807
bin	8.62944e-05	6886
bin	8.71488e-05	6773
bin	8.80032e-05	6603
bin	8.88576e-05	6921
bin	8.9712e-05	6829
bin	9.05664e-05	6788
bin	9.14208e-05	6968
bin	9.22752e-05	6900
bin	9.31296e-05	6964
bin	9.3984e-05	6709
bin	9.48384e-05	6868
bin	9.56928e-05	6854
bin	9.65472e-05	6595
bin	9.74016e-05	6488
bin	9.8256e-05	6476
bin	9.91104e-05	6295
bin	9.99648e-05	6026
bin	0.0001008192	6259
bin	0.0001016736	6105
bin	0.000102528	6196
bin	0.0001033824	5976
bin	0.0001042368	5995
bin	0.0001050912	5975
bin	0.0001059456	5849
bin	0.0001068	5831
bin	0.0001076544	5718
bin	0.0001085088	5930
bin	0.0001093632	5898
bin	0.0001102176	5837
bin	0.000111072	5809
bin	0.0001119264	5852
bin	0.0001127808	5754
bin	0.0001136352	5763
bin	0.0001144896	5668
bin	0.000115344	5795
bin	0.0001161984	5785
bin	0.0001170528	5842
bin	0.0001179072	5812
bin	0.0001187616	5736
bin	0.000119616	5829
bin	0.0001204704	5736
bin	0.0001213248	5810
bin	0.0001221792	5748
bin	0.0001230336	5803
bin	0.000123888	5833
bin	0.0001247424	5697
bin	0.0001255968	5831
bin	0.0001264512	5596
bin	0.0001273056	5833
bin	0.00012816	5604
bin	0.0001290144	5626
bin	0.0001298688	5608
bin	0.0001307232	5685
bin	0.0001315776	5505
bin	0.000132432	5577
bin	0.0001332864	5372
bin	0.0001341408	5522
bin	0.0001349952	5467
bin	0.0001358496	5582
bin	0.000136704	5460
bin	0.0001375584	5492
bin	0.0001384128	5486
bin	0.0001392672	5377
bin	0.0001401216	5425
bin	0.000140976	5361
bin	0.0001418304	5463
bin	0.0001426848	5415
bin	0.0001435392	5426
bin	0.0001443936	5435
bin	0.000145248	5444
bin	0.0001461024	5396
bin	0.0001469568	5273
bin	0.0001478112	5271
bin	0.0001486656	5374
bin	0.00014952	5352
bin	0.0001503744	5375
bin	0.0001512288	5487
bin	0.0001520832	5506
bin	0.0001529376	5420
bin	0.000153792	5301
bin	0.0001546464	5484
bin	0.0001555008	5521
bin	0.0001563552	5457
bin	0.0001572096	5535
bin	0.000158064	5569
bin	0.0001589184	5420
bin	0.0001597728	5350
bin	0.0001606272	5335
bin	0.0001614816	5325
bin	0.000162336	5391
bin	0.0001631904	5404
bin	0.0001640448	5302
bin	0.0001648992	5273
bin	0.0001657536	5381
bin	0.000166608	5391
bin	0.0001674624	5303
bin	0.0001683168	5324
bin	0.0001691712	5431
bin	0.0001700256	5289
bin	0.00017088	5244
bin	0.0001717344	5305
bin	0.0001725888	5289
bin	0.0001734432	5304
bin	0.0001742976	5307
bin	0.000175152	5229
bin	0.0001760064	5238
bin	0.0001768608	5273
bin	0.0001777152	5259
bin	0.0001785696	5361
bin	0.000179424	5210
bin	0.0001802784	5151
bin	0.0001811328	5273
bin	0.0001819872	5391
bin	0.0001828416	5198
bin	0.000183696	5325
bin	0.0001845504	5345
bin	0.0001854048	5408
bin	0.0001862592	5253
bin	0.0001871136	5343
bin	0.000187968	5291
bin	0.0001888224	5308
bin	0.0001896768	5230
bin	0.0001905312	5278
bin	0.0001913856	5218
bin	0.00019224	5233
bin	0.0001930944	5137
bin	0.0001939488	5249
bin	0.0001948032	5283
bin	0.0001956576	5266
bin	0.000196512	5182
bin	0.0001973664	5366
bin	0.0001982208	5387
bin	0.0001990752	5386
bin	0.0001999296	5334
bin	0.000200784	5135
bin	0.0002016384	5119
bin	0.0002024928	5039
bin	0.0002033472	4994
bin	0.0002042016	5029
bin	0.000205056	5039
bin	0.0002059104	5099
bin	0.0002067648	5121
bin	0.0002076192	5168
bin	0.0002084736	5279
bin	0.000209328	5121
bin	0.0002101824	4992
bin	0.0002110368	5023
bin	0.0002118912	5244
bin	0.0002127456	5044
bin	0.0002136	5055
bin	0.0002144544	5133
bin	0.0002153088	5122
bin	0.0002161632	5104
bin	0.0002170176	5130
bin	0.000217872	5099
bin	0.0002187264	5104
bin	0.0002195808	5009
bin	0.0002204352	5082
bin	0.0002212896	5062
bin	0.000222144	4980
bin	0.0002229984	5089
bin	0.0002238528	4892
bin	0.0002247072	5010
bin	0.0002255616	4998
bin	0.000226416	5015
bin	0.0002272704	5017
bin	0.0002281248	4987
bin	0.0002289792	4871
bin	0.0002298336	4907
bin	0.000230688	4780
bin	0.0002315424	4972
bin	0.0002323968	5018
bin	0.0002332512	4804
bin	0.0002341056	4876
bin	0.00023496	4963
bin	0.0002358144	4931
bin	0.0002366688	4964
bin	0.0002375232	4839
bin	0.0002383776	4828
bin	0.000239232	4922
bin	0.0002400864	4861
bin	0.0002409408	4856
bin	0.0002417952	4958
bin	0.0002426496	4829
bin	0.000243504	4659
bin	0.0002443584	4931
bin	0.0002452128	4870
bin	0.0002460672	4851
bin	0.0002469216	4894
bin	0.000247776	4897
bin	0.0002486304	4805
bin	0.0002494848	4806
bin	0.0002503392	4752
bin	0.0002511936	4933
bin	0.000252048	4834
bin	0.0002529024	4930
bin	0.0002537568	4754
bin	0.0002546112	4710
bin	0.0002554656	4827
bin	0.00025632	4711
bin	0.0002571744	4776
bin	0.0002580288	4842
bin	0.0002588832	4884
bin	0.0002597376	4917
bin	0.000260592	4794
bin	0.0002614464	4837
bin	0.0002623008	4718
bin	0.0002631552	4674
bin	0.0002640096	4735
bin	0.000264864	4615
bin	0.0002657184	4830
bin	0.0002665728	4554
bin	0.0002674272	4694
bin	0.0002682816	4719
bin	0.000269136	4773
bin	0.0002699904	4693
bin	0.0002708448	4747
bin	0.0002716992	4526
bin	0.0002725536	4658
bin	0.000273408	4719
bin	0.0002742624	4665
bin	0.0002751168	4541
bin	0.0002759712	4660
bin	0.0002768256	4642
bin	0.00027768	4639
bin	0.0002785344	4568
bin	0.0002793888	4593
bin	0.0002802432	4567
bin	0.0002810976	4461
bin	0.000281952	4489
bin	0.0002828064	4539
bin	0.0002836608	4499
bin	0.0002845152	4586
bin	0.0002853696	4539
bin	0.000286224	4580
bin	0.0002870784	4617
bin	0.0002879328	4609
bin	0.0002887872	4631
bin	0.0002896416	4667
bin	0.000290496	4523
bin	0.0002913504	4496
bin	0.0002922048	4664
bin	0.0002930592	4621
bin	0.0002939136	4772
bin	0.000294768	4633
bin	0.0002956224	4646
bin	0.0002964768	4634
bin	0.0002973312	4605
bin	0.0002981856	4613
bin	0.00029904	4642
bin	0.0002998944	4555
bin	0.0003007488	4661
bin	0.0003016032	4606
bin	0.0003024576	4668
bin	0.000303312	4513
bin	0.0003041664	4489
bin	0.0003050208	4551
bin	0.0003058752	4510
bin	0.0003067296	4566
bin	0.000307584	4481
bin	0.0003084384	4613
bin	0.0003092928	4517
bin	0.0003101472	4591
bin	0.0003110016	4486
bin	0.000311856	4615
bin	0.0003127104	4469
bin	0.0003135648	4533
bin	0.0003144192	4444
bin	0.0003152736	4496
bin	0.000316128	4433
bin	0.0003169824	4515
bin	0.0003178368	4405
bin	0.0003186912	4506
bin	0.0003195456	4517
bin	0.0003204	4449
bin	0.0003212544	4403
bin	0.0003221088	4335
bin	0.0003229632	4283
bin	0.0003238176	4325
bin	0.000324672	4436
bin	0.0003255264	4390
bin	0.0003263808	4514
bin	0.0003272352	4351
bin	0.0003280896	4390
bin	0.000328944	4441
bin	0.0003297984	4409
bin	0.0003306528	4230
bin	0.0003315072	4376
bin	0.0003323616	4352
bin	0.000333216	4403
bin	0.0003340704	4351
bin	0.0003349248	4225
bin	0.0003357792	4308
bin	0.0003366336	4324
bin	0.000337488	4379
bin	0.0003383424	4406
bin	0.0003391968	4468
bin	0.0003400512	4337
bin	0.0003409056	4333
bin	0.00034176	4360
bin	0.0003426144	4302
bin	0.0003434688	4281
bin	0.0003443232	4369
bin	0.0003451776	4397
bin	0.000346032	4346
bin	0.0003468864	4390
bin	0.0003477408	4295
bin	0.0003485952	4294
bin	0.0003494496	4287
bin	0.000350304	4230
bin	0.0003511584	4195
bin	0.0003520128	4410
bin	0.0003528672	4204
bin	0.0003537216	4207
bin	0.000354576	4272
bin	0.0003554304	4210
bin	0.0003562848	4233
bin	0.0003571392	4228
bin	0.0003579936	4239
bin	0.000358848	4142
bin	0.0003597024	4139
bin	0.0003605568	4279
bin	0.0003614112	4127
bin	0.0003622656	4225
bin	0.00036312	4246
bin	0.0003639744	4157
bin	0.0003648288	4223
bin	0.0003656832	4128
bin	0.0003665376	4205
bin	0.000367392	4096
bin	0.0003682464	4099
bin	0.0003691008	4152
bin	0.0003699552	4111
bin	0.0003708096	4125
bin	0.000371664	4147
bin	0.0003725184	4079
bin	0.0003733728	4104
bin	0.0003742272	4136
bin	0.0003750816	4145
bin	0.000375936	4314
bin	0.0003767904	4035
bin	0.0003776448	4088
bin	0.0003784992	4168
bin	0.0003793536	4157
bin	0.000380208	4185
bin	0.0003810624	4109
bin	0.0003819168	4086
bin	0.0003827712	4229
bin	0.0003836256	4221
bin	0.00038448	4214
bin	0.0003853344	4151
bin	0.0003861888	4299
bin	0.0003870432	4185
bin	0.0003878976	4209
bin	0.000388752	4208
bin	0.0003896064	4165
bin	0.0003904608	4158
bin	0.0003913152	4247
bin	0.0003921696	4263
bin	0.000393024	4133
bin	0.0003938784	4184
bin	0.0003947328	4159
bin	0.0003955872	4316
bin	0.0003964416	4151
bin	0.000397296	4164
bin	0.0003981504	4196
bin	0.0003990048	4196
bin	0.0003998592	4119
bin	0.0004007136	4266
bin	0.000401568	4206
bin	0.0004024224	4126
bin	0.0004032768	4131
bin	0.0004041312	4052
bin	0.0004049856	4020
bin	0.00040584	4114
bin	0.0004066944	4116
bin	0.0004075488	4068
bin	0.0004084032	4112
bin	0.0004092576	4212
bin	0.000410112	4086
bin	0.0004109664	4135
bin	0.0004118208	4178
bin	0.0004126752	4043
bin	0.0004135296	4143
bin	0.000414384	3980
bin	0.0004152384	3922
bin	0.0004160928	4070
bin	0.0004169472	4113
bin	0.0004178016	4030
bin	0.000418656	4001
bin	0.0004195104	4094
bin	0.0004203648	4048
bin	0.0004212192	3953
bin	0.0004220736	4136
bin	0.000422928	4003
bin	0.0004237824	4184
bin	0.0004246368	4002
bin	0.0004254912	4073
bin	0.0004263456	3972
bin	0.0004272	2327370
