version 2
run Uniform-56-20120709-17:48:01-24823
attr alg 0
attr buf 8
attr configname Uniform
attr datetime 20120709-17:48:01
attr delta 1
attr experiment Uniform
attr ext false
attr inifile altro.ini
attr iterationvars "$buf=8, $ext=false, $ofedge=1, $delta=1, $alg=0"
attr iterationvars2 "$buf=8, $ext=false, $ofedge=1, $delta=1, $alg=0, $repetition=0"
attr measurement "$buf=8, $ext=false, $ofedge=1, $delta=1, $alg=0"
attr network Torus3d_bub
attr ofedge 1
attr processid 24823
attr repetition 0
attr replication #0
attr resultdir altro-results
attr runnumber 56
attr seedset 56

scalar . 	alg 	0
scalar . 	buf 	8
scalar . 	delta 	1
scalar . 	ofedge 	1
scalar Torus3d_bub.timer 	#endTime 	0.001610730997509
scalar Torus3d_bub.timer 	#totalHops 	75448032
scalar Torus3d_bub.timer 	#totalPacks 	6291456
scalar Torus3d_bub.timer 	#totalDerouted 	0
scalar Torus3d_bub.timer 	#totalOutFlanked 	0
scalar Torus3d_bub.timer 	#totalCQRed 	0
scalar Torus3d_bub.timer 	#LB 	0.000786432
scalar Torus3d_bub.timer 	#ratio 	0.48824539989372
statistic Torus3d_bub.timer 	"Hop Times"
field count 6289440
field mean 3.6034356748689e-05
field stddev 3.6036527032899e-05
field sum 226.63592470948
field sqrsum 0.016334341985831
field min 3.72699999e-07
field max 0.000918466331061
bin	-INF	0
bin	0	0
bin	7.12e-08	0
bin	1.424e-07	0
bin	2.136e-07	0
bin	2.848e-07	0
bin	3.56e-07	223
bin	4.272e-07	1001
bin	4.984e-07	1948
bin	5.696e-07	2983
bin	6.408e-07	4398
bin	7.12e-07	5507
bin	7.832e-07	6885
bin	8.544e-07	8007
bin	9.256e-07	8935
bin	9.968e-07	10163
bin	1.068e-06	11281
bin	1.1392e-06	12409
bin	1.2104e-06	13716
bin	1.2816e-06	15172
bin	1.3528e-06	16617
bin	1.424e-06	18325
bin	1.4952e-06	20147
bin	1.5664e-06	21248
bin	1.6376e-06	22434
bin	1.7088e-06	23515
bin	1.78e-06	24018
bin	1.8512e-06	24400
bin	1.9224e-06	24481
bin	1.9936e-06	24227
bin	2.0648e-06	23592
bin	2.136e-06	23082
bin	2.2072e-06	22388
bin	2.2784e-06	21868
bin	2.3496e-06	20992
bin	2.4208e-06	20270
bin	2.492e-06	19499
bin	2.5632e-06	18676
bin	2.6344e-06	17871
bin	2.7056e-06	17490
bin	2.7768e-06	16676
bin	2.848e-06	16200
bin	2.9192e-06	15757
bin	2.9904e-06	15158
bin	3.0616e-06	14843
bin	3.1328e-06	14416
bin	3.204e-06	13935
bin	3.2752e-06	13265
bin	3.3464e-06	13013
bin	3.4176e-06	12596
bin	3.4888e-06	12316
bin	3.56e-06	11840
bin	3.6312e-06	11691
bin	3.7024e-06	11479
bin	3.7736e-06	11159
bin	3.8448e-06	10952
bin	3.916e-06	10664
bin	3.9872e-06	10475
bin	4.0584e-06	10493
bin	4.1296e-06	10116
bin	4.2008e-06	9991
bin	4.272e-06	9779
bin	4.3432e-06	9751
bin	4.4144e-06	9613
bin	4.4856e-06	9484
bin	4.5568e-06	9416
bin	4.628e-06	9344
bin	4.6992e-06	9209
bin	4.7704e-06	9035
bin	4.8416e-06	8877
bin	4.9128e-06	8849
bin	4.984e-06	8759
bin	5.0552e-06	8685
bin	5.1264e-06	8532
bin	5.1976e-06	8376
bin	5.2688e-06	8191
bin	5.34e-06	8207
bin	5.4112e-06	8123
bin	5.4824e-06	8193
bin	5.5536e-06	8227
bin	5.6248e-06	8147
bin	5.696e-06	8093
bin	5.7672e-06	8071
bin	5.8384e-06	8149
bin	5.9096e-06	7936
bin	5.9808e-06	7899
bin	6.052e-06	7743
bin	6.1232e-06	7832
bin	6.1944e-06	7717
bin	6.2656e-06	7749
bin	6.3368e-06	7758
bin	6.408e-06	7703
bin	6.4792e-06	7639
bin	6.5504e-06	7595
bin	6.6216e-06	7571
bin	6.6928e-06	7639
bin	6.764e-06	7614
bin	6.8352e-06	7368
bin	6.9064e-06	7356
bin	6.9776e-06	7373
bin	7.0488e-06	7409
bin	7.12e-06	7413
bin	7.1912e-06	7214
bin	7.2624e-06	7256
bin	7.3336e-06	7222
bin	7.4048e-06	7246
bin	7.476e-06	7262
bin	7.5472e-06	7256
bin	7.6184e-06	7255
bin	7.6896e-06	7115
bin	7.7608e-06	7396
bin	7.832e-06	7286
bin	7.9032e-06	7319
bin	7.9744e-06	7296
bin	8.0456e-06	7309
bin	8.1168e-06	7147
bin	8.188e-06	7073
bin	8.2592e-06	7148
bin	8.3304e-06	7048
bin	8.4016e-06	7089
bin	8.4728e-06	7189
bin	8.544e-06	7173
bin	8.6152e-06	7119
bin	8.6864e-06	7089
bin	8.7576e-06	7115
bin	8.8288e-06	7133
bin	8.9e-06	7148
bin	8.9712e-06	7135
bin	9.0424e-06	7227
bin	9.1136e-06	6988
bin	9.1848e-06	7133
bin	9.256e-06	7100
bin	9.3272e-06	7025
bin	9.3984e-06	6999
bin	9.4696e-06	7003
bin	9.5408e-06	7052
bin	9.612e-06	7100
bin	9.6832e-06	7054
bin	9.7544e-06	6994
bin	9.8256e-06	7032
bin	9.8968e-06	6978
bin	9.968e-06	6999
bin	1.00392e-05	7035
bin	1.01104e-05	7061
bin	1.01816e-05	6834
bin	1.02528e-05	6843
bin	1.0324e-05	6998
bin	1.03952e-05	6888
bin	1.04664e-05	6839
bin	1.05376e-05	6907
bin	1.06088e-05	7026
bin	1.068e-05	6899
bin	1.07512e-05	6942
bin	1.08224e-05	6944
bin	1.08936e-05	6770
bin	1.09648e-05	7116
bin	1.1036e-05	7010
bin	1.11072e-05	6913
bin	1.11784e-05	6872
bin	1.12496e-05	6658
bin	1.13208e-05	6880
bin	1.1392e-05	6782
bin	1.14632e-05	6687
bin	1.15344e-05	6607
bin	1.16056e-05	6733
bin	1.16768e-05	6769
bin	1.1748e-05	6706
bin	1.18192e-05	6634
bin	1.18904e-05	6704
bin	1.19616e-05	6707
bin	1.20328e-05	6667
bin	1.2104e-05	6748
bin	1.21752e-05	6734
bin	1.22464e-05	6719
bin	1.23176e-05	6488
bin	1.23888e-05	6549
bin	1.246e-05	6746
bin	1.25312e-05	6815
bin	1.26024e-05	6739
bin	1.26736e-05	6732
bin	1.27448e-05	6696
bin	1.2816e-05	6789
bin	1.28872e-05	6730
bin	1.29584e-05	6654
bin	1.30296e-05	6655
bin	1.31008e-05	6743
bin	1.3172e-05	6722
bin	1.32432e-05	6777
bin	1.33144e-05	6646
bin	1.33856e-05	6756
bin	1.34568e-05	6652
bin	1.3528e-05	6650
bin	1.35992e-05	6636
bin	1.36704e-05	6620
bin	1.37416e-05	6574
bin	1.38128e-05	6655
bin	1.3884e-05	6597
bin	1.39552e-05	6696
bin	1.40264e-05	6650
bin	1.40976e-05	6722
bin	1.41688e-05	6681
bin	1.424e-05	6748
bin	1.43112e-05	6696
bin	1.43824e-05	6833
bin	1.44536e-05	6714
bin	1.45248e-05	6640
bin	1.4596e-05	6556
bin	1.46672e-05	6629
bin	1.47384e-05	6602
bin	1.48096e-05	6720
bin	1.48808e-05	6632
bin	1.4952e-05	6569
bin	1.50232e-05	6641
bin	1.50944e-05	6539
bin	1.51656e-05	6562
bin	1.52368e-05	6596
bin	1.5308e-05	6566
bin	1.53792e-05	6658
bin	1.54504e-05	6491
bin	1.55216e-05	6564
bin	1.55928e-05	6609
bin	1.5664e-05	6631
bin	1.57352e-05	6551
bin	1.58064e-05	6667
bin	1.58776e-05	6643
bin	1.59488e-05	6681
bin	1.602e-05	6700
bin	1.60912e-05	6766
bin	1.61624e-05	6593
bin	1.62336e-05	6636
bin	1.63048e-05	6814
bin	1.6376e-05	6599
bin	1.64472e-05	6708
bin	1.65184e-05	6530
bin	1.65896e-05	6646
bin	1.66608e-05	6576
bin	1.6732e-05	6606
bin	1.68032e-05	6552
bin	1.68744e-05	6643
bin	1.69456e-05	6741
bin	1.70168e-05	6497
bin	1.7088e-05	6596
bin	1.71592e-05	6516
bin	1.72304e-05	6464
bin	1.73016e-05	6412
bin	1.73728e-05	6429
bin	1.7444e-05	6377
bin	1.75152e-05	6395
bin	1.75864e-05	6488
bin	1.76576e-05	6504
bin	1.77288e-05	6449
bin	1.78e-05	6473
bin	1.78712e-05	6471
bin	1.79424e-05	6505
bin	1.80136e-05	6429
bin	1.80848e-05	6499
bin	1.8156e-05	6354
bin	1.82272e-05	6348
bin	1.82984e-05	6363
bin	1.83696e-05	6411
bin	1.84408e-05	6329
bin	1.8512e-05	6546
bin	1.85832e-05	6346
bin	1.86544e-05	6343
bin	1.87256e-05	6476
bin	1.87968e-05	6411
bin	1.8868e-05	6352
bin	1.89392e-05	6410
bin	1.90104e-05	6445
bin	1.90816e-05	6493
bin	1.91528e-05	6402
bin	1.9224e-05	6427
bin	1.92952e-05	6418
bin	1.93664e-05	6404
bin	1.94376e-05	6463
bin	1.95088e-05	6384
bin	1.958e-05	6458
bin	1.96512e-05	6500
bin	1.97224e-05	6512
bin	1.97936e-05	6408
bin	1.98648e-05	6489
bin	1.9936e-05	6404
bin	2.00072e-05	6325
bin	2.00784e-05	6297
bin	2.01496e-05	6426
bin	2.02208e-05	6367
bin	2.0292e-05	6385
bin	2.03632e-05	6372
bin	2.04344e-05	6211
bin	2.05056e-05	6318
bin	2.05768e-05	6183
bin	2.0648e-05	6237
bin	2.07192e-05	6246
bin	2.07904e-05	6215
bin	2.08616e-05	6418
bin	2.09328e-05	6279
bin	2.1004e-05	6436
bin	2.10752e-05	6281
bin	2.11464e-05	6502
bin	2.12176e-05	6258
bin	2.12888e-05	6353
bin	2.136e-05	6433
bin	2.14312e-05	6462
bin	2.15024e-05	6355
bin	2.15736e-05	6466
bin	2.16448e-05	6251
bin	2.1716e-05	6374
bin	2.17872e-05	6236
bin	2.18584e-05	6227
bin	2.19296e-05	6228
bin	2.20008e-05	6377
bin	2.2072e-05	6328
bin	2.21432e-05	6238
bin	2.22144e-05	6220
bin	2.22856e-05	6311
bin	2.23568e-05	6240
bin	2.2428e-05	6240
bin	2.24992e-05	6144
bin	2.25704e-05	6187
bin	2.26416e-05	6248
bin	2.27128e-05	6275
bin	2.2784e-05	6132
bin	2.28552e-05	6288
bin	2.29264e-05	6194
bin	2.29976e-05	6199
bin	2.30688e-05	6198
bin	2.314e-05	6380
bin	2.32112e-05	6229
bin	2.32824e-05	6160
bin	2.33536e-05	6176
bin	2.34248e-05	6115
bin	2.3496e-05	6239
bin	2.35672e-05	6113
bin	2.36384e-05	6216
bin	2.37096e-05	6200
bin	2.37808e-05	6241
bin	2.3852e-05	6237
bin	2.39232e-05	6243
bin	2.39944e-05	6091
bin	2.40656e-05	6090
bin	2.41368e-05	6099
bin	2.4208e-05	6123
bin	2.42792e-05	6190
bin	2.43504e-05	6165
bin	2.44216e-05	6255
bin	2.44928e-05	6087
bin	2.4564e-05	6301
bin	2.46352e-05	6286
bin	2.47064e-05	6122
bin	2.47776e-05	6123
bin	2.48488e-05	6122
bin	2.492e-05	6090
bin	2.49912e-05	6152
bin	2.50624e-05	6214
bin	2.51336e-05	6114
bin	2.52048e-05	6178
bin	2.5276e-05	6084
bin	2.53472e-05	5984
bin	2.54184e-05	6077
bin	2.54896e-05	6087
bin	2.55608e-05	6048
bin	2.5632e-05	5984
bin	2.57032e-05	6052
bin	2.57744e-05	6006
bin	2.58456e-05	6058
bin	2.59168e-05	6118
bin	2.5988e-05	6062
bin	2.60592e-05	6036
bin	2.61304e-05	5970
bin	2.62016e-05	6255
bin	2.62728e-05	6063
bin	2.6344e-05	5972
bin	2.64152e-05	5988
bin	2.64864e-05	5985
bin	2.65576e-05	6014
bin	2.66288e-05	5894
bin	2.67e-05	5871
bin	2.67712e-05	5849
bin	2.68424e-05	6044
bin	2.69136e-05	5934
bin	2.69848e-05	5975
bin	2.7056e-05	5943
bin	2.71272e-05	5927
bin	2.71984e-05	5858
bin	2.72696e-05	6056
bin	2.73408e-05	5816
bin	2.7412e-05	5960
bin	2.74832e-05	5881
bin	2.75544e-05	6059
bin	2.76256e-05	6161
bin	2.76968e-05	5947
bin	2.7768e-05	6001
bin	2.78392e-05	5973
bin	2.79104e-05	5938
bin	2.79816e-05	5929
bin	2.80528e-05	5860
bin	2.8124e-05	5825
bin	2.81952e-05	5814
bin	2.82664e-05	5777
bin	2.83376e-05	5830
bin	2.84088e-05	5731
bin	2.848e-05	5851
bin	2.85512e-05	5941
bin	2.86224e-05	5873
bin	2.86936e-05	5947
bin	2.87648e-05	5986
bin	2.8836e-05	5764
bin	2.89072e-05	5815
bin	2.89784e-05	5817
bin	2.90496e-05	5764
bin	2.91208e-05	5741
bin	2.9192e-05	5905
bin	2.92632e-05	5839
bin	2.93344e-05	5741
bin	2.94056e-05	5840
bin	2.94768e-05	5898
bin	2.9548e-05	5686
bin	2.96192e-05	5771
bin	2.96904e-05	5857
bin	2.97616e-05	5823
bin	2.98328e-05	5762
bin	2.9904e-05	5790
bin	2.99752e-05	5691
bin	3.00464e-05	5951
bin	3.01176e-05	5961
bin	3.01888e-05	5791
bin	3.026e-05	5837
bin	3.03312e-05	5768
bin	3.04024e-05	5872
bin	3.04736e-05	5795
bin	3.05448e-05	5831
bin	3.0616e-05	5745
bin	3.06872e-05	5704
bin	3.07584e-05	5681
bin	3.08296e-05	5685
bin	3.09008e-05	5912
bin	3.0972e-05	5828
bin	3.10432e-05	5872
bin	3.11144e-05	5973
bin	3.11856e-05	5907
bin	3.12568e-05	5850
bin	3.1328e-05	5813
bin	3.13992e-05	5941
bin	3.14704e-05	5942
bin	3.15416e-05	5901
bin	3.16128e-05	5916
bin	3.1684e-05	5855
bin	3.17552e-05	5620
bin	3.18264e-05	5760
bin	3.18976e-05	5738
bin	3.19688e-05	5678
bin	3.204e-05	5873
bin	3.21112e-05	5719
bin	3.21824e-05	5656
bin	3.22536e-05	5771
bin	3.23248e-05	5812
bin	3.2396e-05	5813
bin	3.24672e-05	5739
bin	3.25384e-05	5704
bin	3.26096e-05	5604
bin	3.26808e-05	5693
bin	3.2752e-05	5712
bin	3.28232e-05	5813
bin	3.28944e-05	5682
bin	3.29656e-05	5818
bin	3.30368e-05	5665
bin	3.3108e-05	5875
bin	3.31792e-05	5623
bin	3.32504e-05	5726
bin	3.33216e-05	5837
bin	3.33928e-05	5770
bin	3.3464e-05	5826
bin	3.35352e-05	5757
bin	3.36064e-05	5703
bin	3.36776e-05	5829
bin	3.37488e-05	5916
bin	3.382e-05	5785
bin	3.38912e-05	5959
bin	3.39624e-05	5771
bin	3.40336e-05	5817
bin	3.41048e-05	5842
bin	3.4176e-05	5865
bin	3.42472e-05	5818
bin	3.43184e-05	5787
bin	3.43896e-05	5870
bin	3.44608e-05	5705
bin	3.4532e-05	5794
bin	3.46032e-05	5893
bin	3.46744e-05	5675
bin	3.47456e-05	5888
bin	3.48168e-05	5955
bin	3.4888e-05	5826
bin	3.49592e-05	5959
bin	3.50304e-05	5807
bin	3.51016e-05	5804
bin	3.51728e-05	5855
bin	3.5244e-05	5843
bin	3.53152e-05	5767
bin	3.53864e-05	5810
bin	3.54576e-05	5812
bin	3.55288e-05	5810
bin	3.56e-05	2630352
statistic Torus3d_bub.timer 	"Life Times"
field count 6291456
field mean 0.00037277897548511
field stddev 0.00026020815783209
field sum 2345.3225219897
field sqrsum 1.3002705576656
field min 2.06666513e-07
field max 0.001530757666665
bin	-INF	0
bin	0	53
bin	8.544e-07	363
bin	1.7088e-06	921
bin	2.5632e-06	1759
bin	3.4176e-06	2622
bin	4.272e-06	3637
bin	5.1264e-06	4599
bin	5.9808e-06	5616
bin	6.8352e-06	6650
bin	7.6896e-06	7828
bin	8.544e-06	9043
bin	9.3984e-06	9883
bin	1.02528e-05	10988
bin	1.11072e-05	11803
bin	1.19616e-05	12750
bin	1.2816e-05	13574
bin	1.36704e-05	14858
bin	1.45248e-05	15600
bin	1.53792e-05	16629
bin	1.62336e-05	17553
bin	1.7088e-05	18324
bin	1.79424e-05	19410
bin	1.87968e-05	20138
bin	1.96512e-05	21177
bin	2.05056e-05	21970
bin	2.136e-05	23032
bin	2.22144e-05	23724
bin	2.30688e-05	24270
bin	2.39232e-05	24633
bin	2.47776e-05	24847
bin	2.5632e-05	23972
bin	2.64864e-05	23046
bin	2.73408e-05	22037
bin	2.81952e-05	21300
bin	2.90496e-05	20210
bin	2.9904e-05	19345
bin	3.07584e-05	18143
bin	3.16128e-05	17367
bin	3.24672e-05	16531
bin	3.33216e-05	15646
bin	3.4176e-05	14811
bin	3.50304e-05	14041
bin	3.58848e-05	13374
bin	3.67392e-05	12784
bin	3.75936e-05	12570
bin	3.8448e-05	12029
bin	3.93024e-05	11576
bin	4.01568e-05	11498
bin	4.10112e-05	11388
bin	4.18656e-05	11071
bin	4.272e-05	10861
bin	4.35744e-05	10775
bin	4.44288e-05	10561
bin	4.52832e-05	10496
bin	4.61376e-05	10379
bin	4.6992e-05	10544
bin	4.78464e-05	10301
bin	4.87008e-05	10351
bin	4.95552e-05	10097
bin	5.04096e-05	10114
bin	5.1264e-05	9957
bin	5.21184e-05	9836
bin	5.29728e-05	9632
bin	5.38272e-05	9516
bin	5.46816e-05	9188
bin	5.5536e-05	9057
bin	5.63904e-05	8982
bin	5.72448e-05	8823
bin	5.80992e-05	8592
bin	5.89536e-05	8529
bin	5.9808e-05	8391
bin	6.06624e-05	8134
bin	6.15168e-05	8085
bin	6.23712e-05	8049
bin	6.32256e-05	8120
bin	6.408e-05	8042
bin	6.49344e-05	7951
bin	6.57888e-05	7892
bin	6.66432e-05	7853
bin	6.74976e-05	7740
bin	6.8352e-05	7738
bin	6.92064e-05	7785
bin	7.00608e-05	7731
bin	7.09152e-05	7666
bin	7.17696e-05	7534
bin	7.2624e-05	7758
bin	7.34784e-05	7628
bin	7.43328e-05	7675
bin	7.51872e-05	7624
bin	7.60416e-05	7688
bin	7.6896e-05	7554
bin	7.77504e-05	7806
bin	7.86048e-05	7465
bin	7.94592e-05	7450
bin	8.03136e-05	7423
bin	8.1168e-05	7387
bin	8.20224e-05	7312
bin	8.28768e-05	7299
bin	8.37312e-05	7277
bin	8.45856e-05	7257
bin	8.544e-05	7181
bin	8.62944e-05	7249
bin	8.71488e-05	7269
bin	8.80032e-05	7452
bin	8.88576e-05	7321
bin	8.9712e-05	7059
bin	9.05664e-05	7201
bin	9.14208e-05	7134
bin	9.22752e-05	7170
bin	9.31296e-05	7215
bin	9.3984e-05	7167
bin	9.48384e-05	7198
bin	9.56928e-05	7254
bin	9.65472e-05	7175
bin	9.74016e-05	7056
bin	9.8256e-05	7082
bin	9.91104e-05	7134
bin	9.99648e-05	7232
bin	0.0001008192	7155
bin	0.0001016736	7129
bin	0.000102528	7146
bin	0.0001033824	7143
bin	0.0001042368	7165
bin	0.0001050912	7204
bin	0.0001059456	7174
bin	0.0001068	7207
bin	0.0001076544	7072
bin	0.0001085088	7113
bin	0.0001093632	6995
bin	0.0001102176	7085
bin	0.000111072	7031
bin	0.0001119264	6948
bin	0.0001127808	6973
bin	0.0001136352	6942
bin	0.0001144896	7000
bin	0.000115344	6872
bin	0.0001161984	6901
bin	0.0001170528	6876
bin	0.0001179072	7013
bin	0.0001187616	6870
bin	0.000119616	6886
bin	0.0001204704	7007
bin	0.0001213248	6803
bin	0.0001221792	6910
bin	0.0001230336	6916
bin	0.000123888	6803
bin	0.0001247424	6969
bin	0.0001255968	6912
bin	0.0001264512	6922
bin	0.0001273056	7034
bin	0.00012816	7061
bin	0.0001290144	6950
bin	0.0001298688	6873
bin	0.0001307232	6923
bin	0.0001315776	6965
bin	0.000132432	6867
bin	0.0001332864	6744
bin	0.0001341408	6992
bin	0.0001349952	7002
bin	0.0001358496	6883
bin	0.000136704	6909
bin	0.0001375584	6662
bin	0.0001384128	6689
bin	0.0001392672	6738
bin	0.0001401216	6730
bin	0.000140976	6821
bin	0.0001418304	6836
bin	0.0001426848	6786
bin	0.0001435392	6796
bin	0.0001443936	6847
bin	0.000145248	6846
bin	0.0001461024	6812
bin	0.0001469568	6739
bin	0.0001478112	6851
bin	0.0001486656	6725
bin	0.00014952	6915
bin	0.0001503744	6830
bin	0.0001512288	6823
bin	0.0001520832	6910
bin	0.0001529376	6791
bin	0.000153792	6834
bin	0.0001546464	6765
bin	0.0001555008	6799
bin	0.0001563552	6649
bin	0.0001572096	6630
bin	0.000158064	6657
bin	0.0001589184	6731
bin	0.0001597728	6757
bin	0.0001606272	6573
bin	0.0001614816	6619
bin	0.000162336	6815
bin	0.0001631904	6770
bin	0.0001640448	6649
bin	0.0001648992	6710
bin	0.0001657536	6632
bin	0.000166608	6786
bin	0.0001674624	6782
bin	0.0001683168	6700
bin	0.0001691712	6694
bin	0.0001700256	6846
bin	0.00017088	6741
bin	0.0001717344	6772
bin	0.0001725888	6764
bin	0.0001734432	6891
bin	0.0001742976	6865
bin	0.000175152	6877
bin	0.0001760064	6758
bin	0.0001768608	6749
bin	0.0001777152	6727
bin	0.0001785696	6806
bin	0.000179424	6631
bin	0.0001802784	6627
bin	0.0001811328	6815
bin	0.0001819872	6721
bin	0.0001828416	6789
bin	0.000183696	6804
bin	0.0001845504	6969
bin	0.0001854048	6776
bin	0.0001862592	6701
bin	0.0001871136	6865
bin	0.000187968	6750
bin	0.0001888224	6852
bin	0.0001896768	6848
bin	0.0001905312	6731
bin	0.0001913856	6559
bin	0.00019224	6754
bin	0.0001930944	6711
bin	0.0001939488	6669
bin	0.0001948032	6600
bin	0.0001956576	6624
bin	0.000196512	6670
bin	0.0001973664	6540
bin	0.0001982208	6553
bin	0.0001990752	6585
bin	0.0001999296	6499
bin	0.000200784	6539
bin	0.0002016384	6653
bin	0.0002024928	6621
bin	0.0002033472	6464
bin	0.0002042016	6447
bin	0.000205056	6433
bin	0.0002059104	6534
bin	0.0002067648	6492
bin	0.0002076192	6467
bin	0.0002084736	6455
bin	0.000209328	6558
bin	0.0002101824	6482
bin	0.0002110368	6517
bin	0.0002118912	6549
bin	0.0002127456	6528
bin	0.0002136	6455
bin	0.0002144544	6496
bin	0.0002153088	6557
bin	0.0002161632	6517
bin	0.0002170176	6540
bin	0.000217872	6514
bin	0.0002187264	6450
bin	0.0002195808	6382
bin	0.0002204352	6495
bin	0.0002212896	6258
bin	0.000222144	6336
bin	0.0002229984	6440
bin	0.0002238528	6473
bin	0.0002247072	6369
bin	0.0002255616	6425
bin	0.000226416	6320
bin	0.0002272704	6498
bin	0.0002281248	6209
bin	0.0002289792	6280
bin	0.0002298336	6357
bin	0.000230688	6295
bin	0.0002315424	6380
bin	0.0002323968	6289
bin	0.0002332512	6330
bin	0.0002341056	6316
bin	0.00023496	6373
bin	0.0002358144	6392
bin	0.0002366688	6492
bin	0.0002375232	6448
bin	0.0002383776	6464
bin	0.000239232	6367
bin	0.0002400864	6317
bin	0.0002409408	6305
bin	0.0002417952	6279
bin	0.0002426496	6313
bin	0.000243504	6274
bin	0.0002443584	6337
bin	0.0002452128	6307
bin	0.0002460672	6351
bin	0.0002469216	6286
bin	0.000247776	6334
bin	0.0002486304	6275
bin	0.0002494848	6337
bin	0.0002503392	6243
bin	0.0002511936	6300
bin	0.000252048	6220
bin	0.0002529024	6355
bin	0.0002537568	6246
bin	0.0002546112	6347
bin	0.0002554656	6380
bin	0.00025632	6374
bin	0.0002571744	6236
bin	0.0002580288	6193
bin	0.0002588832	6274
bin	0.0002597376	6131
bin	0.000260592	6137
bin	0.0002614464	6237
bin	0.0002623008	6262
bin	0.0002631552	6205
bin	0.0002640096	6126
bin	0.000264864	6100
bin	0.0002657184	6070
bin	0.0002665728	6034
bin	0.0002674272	6171
bin	0.0002682816	6223
bin	0.000269136	6153
bin	0.0002699904	6209
bin	0.0002708448	6185
bin	0.0002716992	6275
bin	0.0002725536	6112
bin	0.000273408	6336
bin	0.0002742624	6303
bin	0.0002751168	6097
bin	0.0002759712	6206
bin	0.0002768256	6148
bin	0.00027768	6201
bin	0.0002785344	6094
bin	0.0002793888	6179
bin	0.0002802432	6224
bin	0.0002810976	6234
bin	0.000281952	6112
bin	0.0002828064	6179
bin	0.0002836608	6107
bin	0.0002845152	6366
bin	0.0002853696	6112
bin	0.000286224	6070
bin	0.0002870784	6130
bin	0.0002879328	6226
bin	0.0002887872	6335
bin	0.0002896416	6150
bin	0.000290496	6295
bin	0.0002913504	6398
bin	0.0002922048	6325
bin	0.0002930592	6226
bin	0.0002939136	6304
bin	0.000294768	6213
bin	0.0002956224	6425
bin	0.0002964768	6428
bin	0.0002973312	6118
bin	0.0002981856	6280
bin	0.00029904	6333
bin	0.0002998944	6100
bin	0.0003007488	6170
bin	0.0003016032	6306
bin	0.0003024576	6178
bin	0.000303312	6228
bin	0.0003041664	6269
bin	0.0003050208	6384
bin	0.0003058752	6338
bin	0.0003067296	6202
bin	0.000307584	6263
bin	0.0003084384	6199
bin	0.0003092928	6286
bin	0.0003101472	6298
bin	0.0003110016	6213
bin	0.000311856	6265
bin	0.0003127104	6300
bin	0.0003135648	6256
bin	0.0003144192	6217
bin	0.0003152736	6379
bin	0.000316128	6372
bin	0.0003169824	6255
bin	0.0003178368	6207
bin	0.0003186912	6238
bin	0.0003195456	6304
bin	0.0003204	6270
bin	0.0003212544	6171
bin	0.0003221088	6069
bin	0.0003229632	6265
bin	0.0003238176	6335
bin	0.000324672	6189
bin	0.0003255264	6150
bin	0.0003263808	6187
bin	0.0003272352	6158
bin	0.0003280896	6123
bin	0.000328944	6144
bin	0.0003297984	6218
bin	0.0003306528	6225
bin	0.0003315072	6268
bin	0.0003323616	6235
bin	0.000333216	6229
bin	0.0003340704	6080
bin	0.0003349248	6150
bin	0.0003357792	6166
bin	0.0003366336	6109
bin	0.000337488	6057
bin	0.0003383424	5999
bin	0.0003391968	6120
bin	0.0003400512	6179
bin	0.0003409056	6080
bin	0.00034176	6108
bin	0.0003426144	6114
bin	0.0003434688	6147
bin	0.0003443232	6048
bin	0.0003451776	6095
bin	0.000346032	6093
bin	0.0003468864	6112
bin	0.0003477408	5964
bin	0.0003485952	5980
bin	0.0003494496	5939
bin	0.000350304	5970
bin	0.0003511584	6054
bin	0.0003520128	5967
bin	0.0003528672	5811
bin	0.0003537216	5984
bin	0.000354576	5864
bin	0.0003554304	5997
bin	0.0003562848	6018
bin	0.0003571392	5900
bin	0.0003579936	5805
bin	0.000358848	6006
bin	0.0003597024	5949
bin	0.0003605568	5884
bin	0.0003614112	6016
bin	0.0003622656	6088
bin	0.00036312	5887
bin	0.0003639744	5990
bin	0.0003648288	5909
bin	0.0003656832	5991
bin	0.0003665376	5858
bin	0.000367392	5784
bin	0.0003682464	5884
bin	0.0003691008	5863
bin	0.0003699552	5826
bin	0.0003708096	5799
bin	0.000371664	5790
bin	0.0003725184	5941
bin	0.0003733728	5848
bin	0.0003742272	5895
bin	0.0003750816	5889
bin	0.000375936	5883
bin	0.0003767904	5780
bin	0.0003776448	5730
bin	0.0003784992	5815
bin	0.0003793536	5910
bin	0.000380208	5826
bin	0.0003810624	5790
bin	0.0003819168	5818
bin	0.0003827712	5654
bin	0.0003836256	5729
bin	0.00038448	5628
bin	0.0003853344	5814
bin	0.0003861888	5877
bin	0.0003870432	5778
bin	0.0003878976	5799
bin	0.000388752	5717
bin	0.0003896064	5760
bin	0.0003904608	5833
bin	0.0003913152	5895
bin	0.0003921696	5681
bin	0.000393024	5645
bin	0.0003938784	5707
bin	0.0003947328	5668
bin	0.0003955872	5692
bin	0.0003964416	5636
bin	0.000397296	5614
bin	0.0003981504	5788
bin	0.0003990048	5634
bin	0.0003998592	5740
bin	0.0004007136	5763
bin	0.000401568	5839
bin	0.0004024224	5849
bin	0.0004032768	5781
bin	0.0004041312	5731
bin	0.0004049856	5599
bin	0.00040584	5582
bin	0.0004066944	5550
bin	0.0004075488	5651
bin	0.0004084032	5621
bin	0.0004092576	5761
bin	0.000410112	5619
bin	0.0004109664	5497
bin	0.0004118208	5568
bin	0.0004126752	5632
bin	0.0004135296	5659
bin	0.000414384	5683
bin	0.0004152384	5708
bin	0.0004160928	5761
bin	0.0004169472	5795
bin	0.0004178016	5749
bin	0.000418656	5784
bin	0.0004195104	5786
bin	0.0004203648	5751
bin	0.0004212192	5787
bin	0.0004220736	5667
bin	0.000422928	5793
bin	0.0004237824	5886
bin	0.0004246368	5790
bin	0.0004254912	5830
bin	0.0004263456	5842
bin	0.0004272	2603978
