version 2
run Uniform-12-20120709-15:45:00-24387
attr alg 0
attr buf 8
attr configname Uniform
attr datetime 20120709-15:45:00
attr delta 0.8
attr experiment Uniform
attr ext true
attr inifile altro.ini
attr iterationvars "$buf=8, $ext=true, $ofedge=1, $delta=0.8, $alg=0"
attr iterationvars2 "$buf=8, $ext=true, $ofedge=1, $delta=0.8, $alg=0, $repetition=0"
attr measurement "$buf=8, $ext=true, $ofedge=1, $delta=0.8, $alg=0"
attr network Torus3d_bub
attr ofedge 1
attr processid 24387
attr repetition 0
attr replication #0
attr resultdir altro-results
attr runnumber 12
attr seedset 12

scalar . 	alg 	0
scalar . 	buf 	8
scalar . 	delta 	0.8
scalar . 	ofedge 	1
scalar Torus3d_bub.timer 	#endTime 	0.001537485664289
scalar Torus3d_bub.timer 	#totalHops 	75682704
scalar Torus3d_bub.timer 	#totalPacks 	6291456
scalar Torus3d_bub.timer 	#totalDerouted 	0
scalar Torus3d_bub.timer 	#totalOutFlanked 	0
scalar Torus3d_bub.timer 	#totalCQRed 	0
scalar Torus3d_bub.timer 	#LB 	0.000786432
scalar Torus3d_bub.timer 	#ratio 	0.51150525710019
statistic Torus3d_bub.timer 	"Hop Times"
field count 6290160
field mean 2.0985395817031e-05
field stddev 2.3845132391575e-05
field sum 132.00149735246
field sqrsum 0.0063466273071204
field min 4.05111089e-07
field max 0.000676819333189
bin	-INF	0
bin	0	0
bin	7.12e-08	0
bin	1.424e-07	0
bin	2.136e-07	0
bin	2.848e-07	0
bin	3.56e-07	50
bin	4.272e-07	1355
bin	4.984e-07	3836
bin	5.696e-07	6338
bin	6.408e-07	9660
bin	7.12e-07	12736
bin	7.832e-07	15791
bin	8.544e-07	17778
bin	9.256e-07	20326
bin	9.968e-07	22635
bin	1.068e-06	24672
bin	1.1392e-06	26725
bin	1.2104e-06	29650
bin	1.2816e-06	32540
bin	1.3528e-06	36287
bin	1.424e-06	40058
bin	1.4952e-06	44156
bin	1.5664e-06	47509
bin	1.6376e-06	50749
bin	1.7088e-06	53710
bin	1.78e-06	55016
bin	1.8512e-06	55844
bin	1.9224e-06	55987
bin	1.9936e-06	55938
bin	2.0648e-06	54963
bin	2.136e-06	53679
bin	2.2072e-06	51678
bin	2.2784e-06	49382
bin	2.3496e-06	47291
bin	2.4208e-06	45261
bin	2.492e-06	43191
bin	2.5632e-06	41271
bin	2.6344e-06	38803
bin	2.7056e-06	36931
bin	2.7768e-06	35331
bin	2.848e-06	33622
bin	2.9192e-06	32255
bin	2.9904e-06	30511
bin	3.0616e-06	29092
bin	3.1328e-06	28160
bin	3.204e-06	26867
bin	3.2752e-06	25971
bin	3.3464e-06	25008
bin	3.4176e-06	24108
bin	3.4888e-06	23260
bin	3.56e-06	22565
bin	3.6312e-06	21931
bin	3.7024e-06	20950
bin	3.7736e-06	20447
bin	3.8448e-06	20080
bin	3.916e-06	19464
bin	3.9872e-06	18969
bin	4.0584e-06	18554
bin	4.1296e-06	18113
bin	4.2008e-06	17710
bin	4.272e-06	16960
bin	4.3432e-06	16615
bin	4.4144e-06	16536
bin	4.4856e-06	16316
bin	4.5568e-06	15782
bin	4.628e-06	15593
bin	4.6992e-06	15360
bin	4.7704e-06	15244
bin	4.8416e-06	14753
bin	4.9128e-06	14483
bin	4.984e-06	14207
bin	5.0552e-06	14087
bin	5.1264e-06	13815
bin	5.1976e-06	13708
bin	5.2688e-06	13611
bin	5.34e-06	13367
bin	5.4112e-06	13174
bin	5.4824e-06	12833
bin	5.5536e-06	12670
bin	5.6248e-06	12887
bin	5.696e-06	12363
bin	5.7672e-06	12315
bin	5.8384e-06	12322
bin	5.9096e-06	12154
bin	5.9808e-06	12101
bin	6.052e-06	11900
bin	6.1232e-06	11772
bin	6.1944e-06	11848
bin	6.2656e-06	11443
bin	6.3368e-06	11297
bin	6.408e-06	11406
bin	6.4792e-06	11124
bin	6.5504e-06	11187
bin	6.6216e-06	11106
bin	6.6928e-06	10894
bin	6.764e-06	10924
bin	6.8352e-06	10954
bin	6.9064e-06	10780
bin	6.9776e-06	10532
bin	7.0488e-06	10679
bin	7.12e-06	10503
bin	7.1912e-06	10610
bin	7.2624e-06	10589
bin	7.3336e-06	10257
bin	7.4048e-06	10447
bin	7.476e-06	10373
bin	7.5472e-06	10115
bin	7.6184e-06	10096
bin	7.6896e-06	10171
bin	7.7608e-06	9980
bin	7.832e-06	10032
bin	7.9032e-06	9790
bin	7.9744e-06	9812
bin	8.0456e-06	9858
bin	8.1168e-06	9725
bin	8.188e-06	9826
bin	8.2592e-06	9746
bin	8.3304e-06	9662
bin	8.4016e-06	9730
bin	8.4728e-06	9603
bin	8.544e-06	9545
bin	8.6152e-06	9394
bin	8.6864e-06	9507
bin	8.7576e-06	9212
bin	8.8288e-06	9301
bin	8.9e-06	9139
bin	8.9712e-06	9204
bin	9.0424e-06	9208
bin	9.1136e-06	9075
bin	9.1848e-06	9300
bin	9.256e-06	9172
bin	9.3272e-06	8942
bin	9.3984e-06	9100
bin	9.4696e-06	9002
bin	9.5408e-06	8985
bin	9.612e-06	9069
bin	9.6832e-06	8774
bin	9.7544e-06	8775
bin	9.8256e-06	8861
bin	9.8968e-06	8805
bin	9.968e-06	8784
bin	1.00392e-05	8638
bin	1.01104e-05	8702
bin	1.01816e-05	8695
bin	1.02528e-05	8665
bin	1.0324e-05	8735
bin	1.03952e-05	8557
bin	1.04664e-05	8540
bin	1.05376e-05	8470
bin	1.06088e-05	8414
bin	1.068e-05	8601
bin	1.07512e-05	8549
bin	1.08224e-05	8571
bin	1.08936e-05	8519
bin	1.09648e-05	8600
bin	1.1036e-05	8595
bin	1.11072e-05	8470
bin	1.11784e-05	8685
bin	1.12496e-05	8594
bin	1.13208e-05	8396
bin	1.1392e-05	8602
bin	1.14632e-05	8469
bin	1.15344e-05	8480
bin	1.16056e-05	8373
bin	1.16768e-05	8434
bin	1.1748e-05	8384
bin	1.18192e-05	8440
bin	1.18904e-05	8254
bin	1.19616e-05	8182
bin	1.20328e-05	8293
bin	1.2104e-05	8164
bin	1.21752e-05	8358
bin	1.22464e-05	8108
bin	1.23176e-05	8273
bin	1.23888e-05	8177
bin	1.246e-05	8167
bin	1.25312e-05	8095
bin	1.26024e-05	8059
bin	1.26736e-05	8164
bin	1.27448e-05	7996
bin	1.2816e-05	8171
bin	1.28872e-05	8079
bin	1.29584e-05	8026
bin	1.30296e-05	8134
bin	1.31008e-05	8064
bin	1.3172e-05	8069
bin	1.32432e-05	7967
bin	1.33144e-05	8001
bin	1.33856e-05	8128
bin	1.34568e-05	8147
bin	1.3528e-05	7997
bin	1.35992e-05	7978
bin	1.36704e-05	7944
bin	1.37416e-05	8094
bin	1.38128e-05	7840
bin	1.3884e-05	8021
bin	1.39552e-05	8011
bin	1.40264e-05	8175
bin	1.40976e-05	8057
bin	1.41688e-05	7919
bin	1.424e-05	7779
bin	1.43112e-05	8004
bin	1.43824e-05	8056
bin	1.44536e-05	7744
bin	1.45248e-05	8034
bin	1.4596e-05	7880
bin	1.46672e-05	7783
bin	1.47384e-05	7927
bin	1.48096e-05	7922
bin	1.48808e-05	7908
bin	1.4952e-05	7895
bin	1.50232e-05	7821
bin	1.50944e-05	7696
bin	1.51656e-05	7560
bin	1.52368e-05	7716
bin	1.5308e-05	7698
bin	1.53792e-05	7920
bin	1.54504e-05	7690
bin	1.55216e-05	7694
bin	1.55928e-05	7825
bin	1.5664e-05	7734
bin	1.57352e-05	7741
bin	1.58064e-05	7907
bin	1.58776e-05	7597
bin	1.59488e-05	7715
bin	1.602e-05	7644
bin	1.60912e-05	7623
bin	1.61624e-05	7621
bin	1.62336e-05	7605
bin	1.63048e-05	7724
bin	1.6376e-05	7726
bin	1.64472e-05	7797
bin	1.65184e-05	7638
bin	1.65896e-05	7652
bin	1.66608e-05	7571
bin	1.6732e-05	7469
bin	1.68032e-05	7721
bin	1.68744e-05	7683
bin	1.69456e-05	7481
bin	1.70168e-05	7588
bin	1.7088e-05	7637
bin	1.71592e-05	7526
bin	1.72304e-05	7383
bin	1.73016e-05	7461
bin	1.73728e-05	7490
bin	1.7444e-05	7505
bin	1.75152e-05	7539
bin	1.75864e-05	7527
bin	1.76576e-05	7471
bin	1.77288e-05	7614
bin	1.78e-05	7553
bin	1.78712e-05	7584
bin	1.79424e-05	7595
bin	1.80136e-05	7490
bin	1.80848e-05	7381
bin	1.8156e-05	7389
bin	1.82272e-05	7474
bin	1.82984e-05	7395
bin	1.83696e-05	7507
bin	1.84408e-05	7360
bin	1.8512e-05	7411
bin	1.85832e-05	7519
bin	1.86544e-05	7532
bin	1.87256e-05	7549
bin	1.87968e-05	7377
bin	1.8868e-05	7497
bin	1.89392e-05	7495
bin	1.90104e-05	7527
bin	1.90816e-05	7473
bin	1.91528e-05	7304
bin	1.9224e-05	7214
bin	1.92952e-05	7330
bin	1.93664e-05	7130
bin	1.94376e-05	7243
bin	1.95088e-05	7354
bin	1.958e-05	7323
bin	1.96512e-05	7180
bin	1.97224e-05	7313
bin	1.97936e-05	7306
bin	1.98648e-05	7289
bin	1.9936e-05	7037
bin	2.00072e-05	7328
bin	2.00784e-05	7202
bin	2.01496e-05	7147
bin	2.02208e-05	7127
bin	2.0292e-05	7064
bin	2.03632e-05	7113
bin	2.04344e-05	7043
bin	2.05056e-05	7209
bin	2.05768e-05	7079
bin	2.0648e-05	7150
bin	2.07192e-05	7167
bin	2.07904e-05	7081
bin	2.08616e-05	7124
bin	2.09328e-05	7046
bin	2.1004e-05	7032
bin	2.10752e-05	7041
bin	2.11464e-05	7058
bin	2.12176e-05	7034
bin	2.12888e-05	7058
bin	2.136e-05	6993
bin	2.14312e-05	6998
bin	2.15024e-05	7133
bin	2.15736e-05	7073
bin	2.16448e-05	6930
bin	2.1716e-05	7078
bin	2.17872e-05	6953
bin	2.18584e-05	7139
bin	2.19296e-05	7083
bin	2.20008e-05	6896
bin	2.2072e-05	6999
bin	2.21432e-05	6968
bin	2.22144e-05	7012
bin	2.22856e-05	6923
bin	2.23568e-05	6929
bin	2.2428e-05	6836
bin	2.24992e-05	6961
bin	2.25704e-05	7059
bin	2.26416e-05	6975
bin	2.27128e-05	7042
bin	2.2784e-05	6878
bin	2.28552e-05	6906
bin	2.29264e-05	6947
bin	2.29976e-05	6925
bin	2.30688e-05	6947
bin	2.314e-05	6923
bin	2.32112e-05	6943
bin	2.32824e-05	6965
bin	2.33536e-05	6832
bin	2.34248e-05	7035
bin	2.3496e-05	6808
bin	2.35672e-05	6896
bin	2.36384e-05	6873
bin	2.37096e-05	6942
bin	2.37808e-05	6906
bin	2.3852e-05	6852
bin	2.39232e-05	6795
bin	2.39944e-05	6919
bin	2.40656e-05	7019
bin	2.41368e-05	6864
bin	2.4208e-05	6753
bin	2.42792e-05	6963
bin	2.43504e-05	6742
bin	2.44216e-05	6803
bin	2.44928e-05	6916
bin	2.4564e-05	6776
bin	2.46352e-05	6945
bin	2.47064e-05	6947
bin	2.47776e-05	6893
bin	2.48488e-05	6957
bin	2.492e-05	6758
bin	2.49912e-05	6814
bin	2.50624e-05	6871
bin	2.51336e-05	6893
bin	2.52048e-05	6748
bin	2.5276e-05	6686
bin	2.53472e-05	6765
bin	2.54184e-05	6658
bin	2.54896e-05	6765
bin	2.55608e-05	6714
bin	2.5632e-05	6770
bin	2.57032e-05	6741
bin	2.57744e-05	6731
bin	2.58456e-05	6763
bin	2.59168e-05	6747
bin	2.5988e-05	6852
bin	2.60592e-05	6706
bin	2.61304e-05	6700
bin	2.62016e-05	6822
bin	2.62728e-05	6693
bin	2.6344e-05	6678
bin	2.64152e-05	6615
bin	2.64864e-05	6789
bin	2.65576e-05	6704
bin	2.66288e-05	6759
bin	2.67e-05	6757
bin	2.67712e-05	6692
bin	2.68424e-05	6600
bin	2.69136e-05	6687
bin	2.69848e-05	6675
bin	2.7056e-05	6604
bin	2.71272e-05	6612
bin	2.71984e-05	6572
bin	2.72696e-05	6583
bin	2.73408e-05	6442
bin	2.7412e-05	6539
bin	2.74832e-05	6557
bin	2.75544e-05	6491
bin	2.76256e-05	6556
bin	2.76968e-05	6626
bin	2.7768e-05	6664
bin	2.78392e-05	6684
bin	2.79104e-05	6639
bin	2.79816e-05	6502
bin	2.80528e-05	6626
bin	2.8124e-05	6605
bin	2.81952e-05	6480
bin	2.82664e-05	6428
bin	2.83376e-05	6441
bin	2.84088e-05	6536
bin	2.848e-05	6386
bin	2.85512e-05	6348
bin	2.86224e-05	6423
bin	2.86936e-05	6467
bin	2.87648e-05	6339
bin	2.8836e-05	6398
bin	2.89072e-05	6284
bin	2.89784e-05	6311
bin	2.90496e-05	6422
bin	2.91208e-05	6373
bin	2.9192e-05	6305
bin	2.92632e-05	6374
bin	2.93344e-05	6298
bin	2.94056e-05	6429
bin	2.94768e-05	6305
bin	2.9548e-05	6232
bin	2.96192e-05	6273
bin	2.96904e-05	6352
bin	2.97616e-05	6271
bin	2.98328e-05	6242
bin	2.9904e-05	6254
bin	2.99752e-05	6228
bin	3.00464e-05	6173
bin	3.01176e-05	6122
bin	3.01888e-05	6116
bin	3.026e-05	6189
bin	3.03312e-05	6099
bin	3.04024e-05	6085
bin	3.04736e-05	5989
bin	3.05448e-05	6010
bin	3.0616e-05	6068
bin	3.06872e-05	5974
bin	3.07584e-05	6036
bin	3.08296e-05	5979
bin	3.09008e-05	5865
bin	3.0972e-05	5996
bin	3.10432e-05	5892
bin	3.11144e-05	5836
bin	3.11856e-05	5862
bin	3.12568e-05	5850
bin	3.1328e-05	5725
bin	3.13992e-05	5801
bin	3.14704e-05	5709
bin	3.15416e-05	5858
bin	3.16128e-05	5908
bin	3.1684e-05	5878
bin	3.17552e-05	5836
bin	3.18264e-05	5820
bin	3.18976e-05	5723
bin	3.19688e-05	5792
bin	3.204e-05	5796
bin	3.21112e-05	5675
bin	3.21824e-05	5833
bin	3.22536e-05	5698
bin	3.23248e-05	5761
bin	3.2396e-05	5658
bin	3.24672e-05	5838
bin	3.25384e-05	5660
bin	3.26096e-05	5581
bin	3.26808e-05	5610
bin	3.2752e-05	5681
bin	3.28232e-05	5744
bin	3.28944e-05	5639
bin	3.29656e-05	5641
bin	3.30368e-05	5501
bin	3.3108e-05	5643
bin	3.31792e-05	5550
bin	3.32504e-05	5520
bin	3.33216e-05	5521
bin	3.33928e-05	5487
bin	3.3464e-05	5489
bin	3.35352e-05	5452
bin	3.36064e-05	5400
bin	3.36776e-05	5341
bin	3.37488e-05	5363
bin	3.382e-05	5357
bin	3.38912e-05	5343
bin	3.39624e-05	5376
bin	3.40336e-05	5360
bin	3.41048e-05	5273
bin	3.4176e-05	5365
bin	3.42472e-05	5311
bin	3.43184e-05	5279
bin	3.43896e-05	5392
bin	3.44608e-05	5337
bin	3.4532e-05	5337
bin	3.46032e-05	5251
bin	3.46744e-05	5155
bin	3.47456e-05	5141
bin	3.48168e-05	5141
bin	3.4888e-05	5082
bin	3.49592e-05	5018
bin	3.50304e-05	5112
bin	3.51016e-05	5112
bin	3.51728e-05	5002
bin	3.5244e-05	5018
bin	3.53152e-05	5018
bin	3.53864e-05	4957
bin	3.54576e-05	4862
bin	3.55288e-05	4938
bin	3.56e-05	1188435
statistic Torus3d_bub.timer 	"Life Times"
field count 6291456
field mean 0.0002208315744438
field stddev 0.00019009684298636
field sum 1389.3521340239
field sqrsum 0.53416593136863
field min 3.77332853e-07
field max 0.001392874666426
bin	-INF	0
bin	0	54
bin	8.544e-07	593
bin	1.7088e-06	1850
bin	2.5632e-06	3820
bin	3.4176e-06	5890
bin	4.272e-06	8087
bin	5.1264e-06	10239
bin	5.9808e-06	12651
bin	6.8352e-06	14850
bin	7.6896e-06	17119
bin	8.544e-06	19591
bin	9.3984e-06	21769
bin	1.02528e-05	23806
bin	1.11072e-05	25709
bin	1.19616e-05	27439
bin	1.2816e-05	29146
bin	1.36704e-05	30847
bin	1.45248e-05	33178
bin	1.53792e-05	34666
bin	1.62336e-05	36189
bin	1.7088e-05	38784
bin	1.79424e-05	40314
bin	1.87968e-05	42508
bin	1.96512e-05	44220
bin	2.05056e-05	45773
bin	2.136e-05	47577
bin	2.22144e-05	48833
bin	2.30688e-05	50198
bin	2.39232e-05	50956
bin	2.47776e-05	51376
bin	2.5632e-05	51651
bin	2.64864e-05	51374
bin	2.73408e-05	50402
bin	2.81952e-05	49691
bin	2.90496e-05	48582
bin	2.9904e-05	47654
bin	3.07584e-05	45945
bin	3.16128e-05	43091
bin	3.24672e-05	40354
bin	3.33216e-05	37895
bin	3.4176e-05	35362
bin	3.50304e-05	33225
bin	3.58848e-05	31152
bin	3.67392e-05	29193
bin	3.75936e-05	27115
bin	3.8448e-05	25837
bin	3.93024e-05	24345
bin	4.01568e-05	22717
bin	4.10112e-05	21596
bin	4.18656e-05	20568
bin	4.272e-05	19574
bin	4.35744e-05	19048
bin	4.44288e-05	18396
bin	4.52832e-05	18022
bin	4.61376e-05	17418
bin	4.6992e-05	16894
bin	4.78464e-05	16378
bin	4.87008e-05	16081
bin	4.95552e-05	15874
bin	5.04096e-05	15784
bin	5.1264e-05	15599
bin	5.21184e-05	15386
bin	5.29728e-05	15368
bin	5.38272e-05	15315
bin	5.46816e-05	15006
bin	5.5536e-05	14694
bin	5.63904e-05	14765
bin	5.72448e-05	14855
bin	5.80992e-05	14572
bin	5.89536e-05	14623
bin	5.9808e-05	14539
bin	6.06624e-05	14586
bin	6.15168e-05	14679
bin	6.23712e-05	14462
bin	6.32256e-05	14146
bin	6.408e-05	13854
bin	6.49344e-05	13706
bin	6.57888e-05	13281
bin	6.66432e-05	13050
bin	6.74976e-05	12861
bin	6.8352e-05	12647
bin	6.92064e-05	12106
bin	7.00608e-05	11892
bin	7.09152e-05	11615
bin	7.17696e-05	11595
bin	7.2624e-05	11284
bin	7.34784e-05	10981
bin	7.43328e-05	11022
bin	7.51872e-05	11091
bin	7.60416e-05	10788
bin	7.6896e-05	10717
bin	7.77504e-05	10580
bin	7.86048e-05	10588
bin	7.94592e-05	10413
bin	8.03136e-05	10474
bin	8.1168e-05	10390
bin	8.20224e-05	10271
bin	8.28768e-05	10239
bin	8.37312e-05	10160
bin	8.45856e-05	10398
bin	8.544e-05	10181
bin	8.62944e-05	10243
bin	8.71488e-05	10370
bin	8.80032e-05	10269
bin	8.88576e-05	10128
bin	8.9712e-05	10395
bin	9.05664e-05	10439
bin	9.14208e-05	10220
bin	9.22752e-05	10307
bin	9.31296e-05	10441
bin	9.3984e-05	10246
bin	9.48384e-05	10143
bin	9.56928e-05	10042
bin	9.65472e-05	10024
bin	9.74016e-05	10012
bin	9.8256e-05	9773
bin	9.91104e-05	9713
bin	9.99648e-05	9451
bin	0.0001008192	9605
bin	0.0001016736	9385
bin	0.000102528	9491
bin	0.0001033824	9124
bin	0.0001042368	9179
bin	0.0001050912	9074
bin	0.0001059456	9162
bin	0.0001068	8940
bin	0.0001076544	9000
bin	0.0001085088	8907
bin	0.0001093632	8911
bin	0.0001102176	8764
bin	0.000111072	9266
bin	0.0001119264	8801
bin	0.0001127808	8926
bin	0.0001136352	8752
bin	0.0001144896	8734
bin	0.000115344	8921
bin	0.0001161984	8675
bin	0.0001170528	8835
bin	0.0001179072	8804
bin	0.0001187616	8758
bin	0.000119616	8772
bin	0.0001204704	8785
bin	0.0001213248	8813
bin	0.0001221792	8820
bin	0.0001230336	8724
bin	0.000123888	8772
bin	0.0001247424	8905
bin	0.0001255968	8656
bin	0.0001264512	8550
bin	0.0001273056	8700
bin	0.00012816	8653
bin	0.0001290144	8444
bin	0.0001298688	8469
bin	0.0001307232	8509
bin	0.0001315776	8405
bin	0.000132432	8307
bin	0.0001332864	8309
bin	0.0001341408	8337
bin	0.0001349952	8417
bin	0.0001358496	8083
bin	0.000136704	8194
bin	0.0001375584	8172
bin	0.0001384128	8058
bin	0.0001392672	8148
bin	0.0001401216	8241
bin	0.000140976	8232
bin	0.0001418304	8224
bin	0.0001426848	8036
bin	0.0001435392	8217
bin	0.0001443936	8165
bin	0.000145248	8111
bin	0.0001461024	7905
bin	0.0001469568	7991
bin	0.0001478112	8209
bin	0.0001486656	8128
bin	0.00014952	8213
bin	0.0001503744	8062
bin	0.0001512288	8123
bin	0.0001520832	8039
bin	0.0001529376	8082
bin	0.000153792	8082
bin	0.0001546464	7969
bin	0.0001555008	8084
bin	0.0001563552	8119
bin	0.0001572096	8103
bin	0.000158064	8101
bin	0.0001589184	8046
bin	0.0001597728	8082
bin	0.0001606272	8031
bin	0.0001614816	8122
bin	0.000162336	7914
bin	0.0001631904	8158
bin	0.0001640448	8118
bin	0.0001648992	8155
bin	0.0001657536	8198
bin	0.000166608	7963
bin	0.0001674624	8015
bin	0.0001683168	7991
bin	0.0001691712	7937
bin	0.0001700256	7966
bin	0.00017088	7908
bin	0.0001717344	7876
bin	0.0001725888	7721
bin	0.0001734432	7901
bin	0.0001742976	7833
bin	0.000175152	8002
bin	0.0001760064	8003
bin	0.0001768608	7888
bin	0.0001777152	7726
bin	0.0001785696	7953
bin	0.000179424	7848
bin	0.0001802784	7809
bin	0.0001811328	7958
bin	0.0001819872	7942
bin	0.0001828416	7791
bin	0.000183696	7776
bin	0.0001845504	7786
bin	0.0001854048	7853
bin	0.0001862592	7983
bin	0.0001871136	7945
bin	0.000187968	7993
bin	0.0001888224	7834
bin	0.0001896768	7804
bin	0.0001905312	7882
bin	0.0001913856	7745
bin	0.00019224	7950
bin	0.0001930944	7696
bin	0.0001939488	7689
bin	0.0001948032	7774
bin	0.0001956576	7860
bin	0.000196512	7744
bin	0.0001973664	7606
bin	0.0001982208	7556
bin	0.0001990752	7672
bin	0.0001999296	7687
bin	0.000200784	7702
bin	0.0002016384	7720
bin	0.0002024928	7629
bin	0.0002033472	7568
bin	0.0002042016	7656
bin	0.000205056	7573
bin	0.0002059104	7518
bin	0.0002067648	7553
bin	0.0002076192	7654
bin	0.0002084736	7466
bin	0.000209328	7571
bin	0.0002101824	7554
bin	0.0002110368	7509
bin	0.0002118912	7544
bin	0.0002127456	7389
bin	0.0002136	7583
bin	0.0002144544	7582
bin	0.0002153088	7494
bin	0.0002161632	7617
bin	0.0002170176	7597
bin	0.000217872	7399
bin	0.0002187264	7480
bin	0.0002195808	7379
bin	0.0002204352	7460
bin	0.0002212896	7479
bin	0.000222144	7386
bin	0.0002229984	7368
bin	0.0002238528	7425
bin	0.0002247072	7318
bin	0.0002255616	7390
bin	0.000226416	7394
bin	0.0002272704	7287
bin	0.0002281248	7453
bin	0.0002289792	7405
bin	0.0002298336	7311
bin	0.000230688	7466
bin	0.0002315424	7412
bin	0.0002323968	7391
bin	0.0002332512	7378
bin	0.0002341056	7432
bin	0.00023496	7273
bin	0.0002358144	7279
bin	0.0002366688	7443
bin	0.0002375232	7452
bin	0.0002383776	7325
bin	0.000239232	7138
bin	0.0002400864	7329
bin	0.0002409408	7220
bin	0.0002417952	7158
bin	0.0002426496	7213
bin	0.000243504	7180
bin	0.0002443584	7246
bin	0.0002452128	7259
bin	0.0002460672	7312
bin	0.0002469216	7038
bin	0.000247776	7130
bin	0.0002486304	7328
bin	0.0002494848	7045
bin	0.0002503392	7145
bin	0.0002511936	6996
bin	0.000252048	7126
bin	0.0002529024	7121
bin	0.0002537568	7088
bin	0.0002546112	6980
bin	0.0002554656	7134
bin	0.00025632	7039
bin	0.0002571744	7003
bin	0.0002580288	7030
bin	0.0002588832	6991
bin	0.0002597376	7048
bin	0.000260592	7006
bin	0.0002614464	7024
bin	0.0002623008	7053
bin	0.0002631552	7066
bin	0.0002640096	7012
bin	0.000264864	7015
bin	0.0002657184	6737
bin	0.0002665728	6832
bin	0.0002674272	6875
bin	0.0002682816	6851
bin	0.000269136	7004
bin	0.0002699904	6848
bin	0.0002708448	6880
bin	0.0002716992	6905
bin	0.0002725536	6836
bin	0.000273408	6838
bin	0.0002742624	6752
bin	0.0002751168	6692
bin	0.0002759712	6722
bin	0.0002768256	6793
bin	0.00027768	6671
bin	0.0002785344	6910
bin	0.0002793888	6734
bin	0.0002802432	6793
bin	0.0002810976	6871
bin	0.000281952	6697
bin	0.0002828064	6852
bin	0.0002836608	6827
bin	0.0002845152	6546
bin	0.0002853696	6596
bin	0.000286224	6634
bin	0.0002870784	6618
bin	0.0002879328	6651
bin	0.0002887872	6741
bin	0.0002896416	6680
bin	0.000290496	6657
bin	0.0002913504	6631
bin	0.0002922048	6631
bin	0.0002930592	6610
bin	0.0002939136	6674
bin	0.000294768	6617
bin	0.0002956224	6539
bin	0.0002964768	6618
bin	0.0002973312	6668
bin	0.0002981856	6554
bin	0.00029904	6490
bin	0.0002998944	6646
bin	0.0003007488	6662
bin	0.0003016032	6571
bin	0.0003024576	6477
bin	0.000303312	6529
bin	0.0003041664	6462
bin	0.0003050208	6447
bin	0.0003058752	6494
bin	0.0003067296	6468
bin	0.000307584	6289
bin	0.0003084384	6396
bin	0.0003092928	6447
bin	0.0003101472	6423
bin	0.0003110016	6388
bin	0.000311856	6492
bin	0.0003127104	6529
bin	0.0003135648	6372
bin	0.0003144192	6418
bin	0.0003152736	6381
bin	0.000316128	6499
bin	0.0003169824	6480
bin	0.0003178368	6454
bin	0.0003186912	6468
bin	0.0003195456	6392
bin	0.0003204	6620
bin	0.0003212544	6485
bin	0.0003221088	6563
bin	0.0003229632	6589
bin	0.0003238176	6644
bin	0.000324672	6471
bin	0.0003255264	6441
bin	0.0003263808	6458
bin	0.0003272352	6499
bin	0.0003280896	6494
bin	0.000328944	6432
bin	0.0003297984	6499
bin	0.0003306528	6451
bin	0.0003315072	6549
bin	0.0003323616	6453
bin	0.000333216	6454
bin	0.0003340704	6433
bin	0.0003349248	6340
bin	0.0003357792	6478
bin	0.0003366336	6507
bin	0.000337488	6417
bin	0.0003383424	6522
bin	0.0003391968	6455
bin	0.0003400512	6352
bin	0.0003409056	6329
bin	0.00034176	6503
bin	0.0003426144	6294
bin	0.0003434688	6391
bin	0.0003443232	6490
bin	0.0003451776	6280
bin	0.000346032	6496
bin	0.0003468864	6271
bin	0.0003477408	6362
bin	0.0003485952	6399
bin	0.0003494496	6376
bin	0.000350304	6210
bin	0.0003511584	6508
bin	0.0003520128	6400
bin	0.0003528672	6309
bin	0.0003537216	6298
bin	0.000354576	6403
bin	0.0003554304	6318
bin	0.0003562848	6412
bin	0.0003571392	6473
bin	0.0003579936	6444
bin	0.000358848	6430
bin	0.0003597024	6319
bin	0.0003605568	6312
bin	0.0003614112	6459
bin	0.0003622656	6417
bin	0.00036312	6269
bin	0.0003639744	6338
bin	0.0003648288	6214
bin	0.0003656832	6316
bin	0.0003665376	6267
bin	0.000367392	6442
bin	0.0003682464	6347
bin	0.0003691008	6525
bin	0.0003699552	6230
bin	0.0003708096	6512
bin	0.000371664	6414
bin	0.0003725184	6464
bin	0.0003733728	6519
bin	0.0003742272	6385
bin	0.0003750816	6418
bin	0.000375936	6321
bin	0.0003767904	6415
bin	0.0003776448	6367
bin	0.0003784992	6361
bin	0.0003793536	6365
bin	0.000380208	6467
bin	0.0003810624	6330
bin	0.0003819168	6304
bin	0.0003827712	6303
bin	0.0003836256	6376
bin	0.00038448	6317
bin	0.0003853344	6335
bin	0.0003861888	6532
bin	0.0003870432	6186
bin	0.0003878976	6305
bin	0.000388752	6240
bin	0.0003896064	6249
bin	0.0003904608	6322
bin	0.0003913152	6267
bin	0.0003921696	6342
bin	0.000393024	6456
bin	0.0003938784	6433
bin	0.0003947328	6345
bin	0.0003955872	6217
bin	0.0003964416	6205
bin	0.000397296	6321
bin	0.0003981504	6319
bin	0.0003990048	6364
bin	0.0003998592	6348
bin	0.0004007136	6435
bin	0.000401568	6387
bin	0.0004024224	6248
bin	0.0004032768	6266
bin	0.0004041312	6304
bin	0.0004049856	6248
bin	0.00040584	6303
bin	0.0004066944	6278
bin	0.0004075488	6261
bin	0.0004084032	6329
bin	0.0004092576	6211
bin	0.000410112	6084
bin	0.0004109664	6265
bin	0.0004118208	6236
bin	0.0004126752	6249
bin	0.0004135296	6273
bin	0.000414384	6338
bin	0.0004152384	6350
bin	0.0004160928	6363
bin	0.0004169472	6339
bin	0.0004178016	6194
bin	0.000418656	6373
bin	0.0004195104	6214
bin	0.0004203648	6246
bin	0.0004212192	6274
bin	0.0004220736	6259
bin	0.000422928	6345
bin	0.0004237824	6378
bin	0.0004246368	6330
bin	0.0004254912	6301
bin	0.0004263456	6464
bin	0.0004272	1127047
