version 2
run Uniform-53-20120709-17:40:44-24820
attr alg 1
attr buf 8
attr configname Uniform
attr datetime 20120709-17:40:44
attr delta 0.8
attr experiment Uniform
attr ext false
attr inifile altro.ini
attr iterationvars "$buf=8, $ext=false, $ofedge=1, $delta=0.8, $alg=1"
attr iterationvars2 "$buf=8, $ext=false, $ofedge=1, $delta=0.8, $alg=1, $repetition=0"
attr measurement "$buf=8, $ext=false, $ofedge=1, $delta=0.8, $alg=1"
attr network Torus3d_bub
attr ofedge 1
attr processid 24820
attr repetition 0
attr replication #0
attr resultdir altro-results
attr runnumber 53
attr seedset 53

scalar . 	alg 	1
scalar . 	buf 	8
scalar . 	delta 	0.8
scalar . 	ofedge 	1
scalar Torus3d_bub.timer 	#endTime 	0.001965146996953
scalar Torus3d_bub.timer 	#totalHops 	84345939
scalar Torus3d_bub.timer 	#totalPacks 	6291456
scalar Torus3d_bub.timer 	#totalDerouted 	2157576
scalar Torus3d_bub.timer 	#totalOutFlanked 	2157576
scalar Torus3d_bub.timer 	#totalCQRed 	0
scalar Torus3d_bub.timer 	#LB 	0.000786432
scalar Torus3d_bub.timer 	#ratio 	0.40018991007766
statistic Torus3d_bub.timer 	"Hop Times"
field count 6289872
field mean 2.8792252528351e-05
field stddev 3.5587260604774e-05
field sum 181.099582995
field sqrsum 0.013180091662064
field min 3.765e-07
field max 0.001337331333045
bin	-INF	0
bin	0	0
bin	7.12e-08	0
bin	1.424e-07	0
bin	2.136e-07	0
bin	2.848e-07	0
bin	3.56e-07	216
bin	4.272e-07	1640
bin	4.984e-07	3709
bin	5.696e-07	6504
bin	6.408e-07	10092
bin	7.12e-07	13793
bin	7.832e-07	16837
bin	8.544e-07	20038
bin	9.256e-07	22829
bin	9.968e-07	25664
bin	1.068e-06	28506
bin	1.1392e-06	31953
bin	1.2104e-06	36062
bin	1.2816e-06	40101
bin	1.3528e-06	45753
bin	1.424e-06	51834
bin	1.4952e-06	57661
bin	1.5664e-06	63213
bin	1.6376e-06	68204
bin	1.7088e-06	72043
bin	1.78e-06	74838
bin	1.8512e-06	75842
bin	1.9224e-06	75409
bin	1.9936e-06	74257
bin	2.0648e-06	71963
bin	2.136e-06	69097
bin	2.2072e-06	65461
bin	2.2784e-06	61790
bin	2.3496e-06	58239
bin	2.4208e-06	54827
bin	2.492e-06	50749
bin	2.5632e-06	48174
bin	2.6344e-06	44726
bin	2.7056e-06	42014
bin	2.7768e-06	39332
bin	2.848e-06	37228
bin	2.9192e-06	34664
bin	2.9904e-06	32655
bin	3.0616e-06	31074
bin	3.1328e-06	29196
bin	3.204e-06	27355
bin	3.2752e-06	25813
bin	3.3464e-06	24940
bin	3.4176e-06	23570
bin	3.4888e-06	22533
bin	3.56e-06	21634
bin	3.6312e-06	20423
bin	3.7024e-06	19355
bin	3.7736e-06	18590
bin	3.8448e-06	18040
bin	3.916e-06	17567
bin	3.9872e-06	16713
bin	4.0584e-06	16587
bin	4.1296e-06	15649
bin	4.2008e-06	15430
bin	4.272e-06	14675
bin	4.3432e-06	14293
bin	4.4144e-06	13982
bin	4.4856e-06	13282
bin	4.5568e-06	13216
bin	4.628e-06	12654
bin	4.6992e-06	12458
bin	4.7704e-06	12066
bin	4.8416e-06	11704
bin	4.9128e-06	11340
bin	4.984e-06	10945
bin	5.0552e-06	10988
bin	5.1264e-06	10806
bin	5.1976e-06	10342
bin	5.2688e-06	10117
bin	5.34e-06	9978
bin	5.4112e-06	9976
bin	5.4824e-06	9627
bin	5.5536e-06	9321
bin	5.6248e-06	9218
bin	5.696e-06	8941
bin	5.7672e-06	9098
bin	5.8384e-06	8741
bin	5.9096e-06	8753
bin	5.9808e-06	8591
bin	6.052e-06	8434
bin	6.1232e-06	8311
bin	6.1944e-06	8079
bin	6.2656e-06	8020
bin	6.3368e-06	8107
bin	6.408e-06	8000
bin	6.4792e-06	7842
bin	6.5504e-06	7638
bin	6.6216e-06	7455
bin	6.6928e-06	7478
bin	6.764e-06	7265
bin	6.8352e-06	7597
bin	6.9064e-06	7423
bin	6.9776e-06	7418
bin	7.0488e-06	7279
bin	7.12e-06	7172
bin	7.1912e-06	7147
bin	7.2624e-06	6940
bin	7.3336e-06	7012
bin	7.4048e-06	7003
bin	7.476e-06	6864
bin	7.5472e-06	6965
bin	7.6184e-06	6867
bin	7.6896e-06	6981
bin	7.7608e-06	6784
bin	7.832e-06	6709
bin	7.9032e-06	6563
bin	7.9744e-06	6553
bin	8.0456e-06	6614
bin	8.1168e-06	6731
bin	8.188e-06	6551
bin	8.2592e-06	6513
bin	8.3304e-06	6591
bin	8.4016e-06	6402
bin	8.4728e-06	6544
bin	8.544e-06	6263
bin	8.6152e-06	6355
bin	8.6864e-06	6227
bin	8.7576e-06	6257
bin	8.8288e-06	6296
bin	8.9e-06	6176
bin	8.9712e-06	6101
bin	9.0424e-06	6153
bin	9.1136e-06	6053
bin	9.1848e-06	6225
bin	9.256e-06	5927
bin	9.3272e-06	5845
bin	9.3984e-06	5967
bin	9.4696e-06	5897
bin	9.5408e-06	6005
bin	9.612e-06	5947
bin	9.6832e-06	5892
bin	9.7544e-06	5941
bin	9.8256e-06	5925
bin	9.8968e-06	5859
bin	9.968e-06	5770
bin	1.00392e-05	5858
bin	1.01104e-05	5759
bin	1.01816e-05	5778
bin	1.02528e-05	5641
bin	1.0324e-05	5776
bin	1.03952e-05	5725
bin	1.04664e-05	5558
bin	1.05376e-05	5880
bin	1.06088e-05	5666
bin	1.068e-05	5660
bin	1.07512e-05	5618
bin	1.08224e-05	5622
bin	1.08936e-05	5637
bin	1.09648e-05	5545
bin	1.1036e-05	5469
bin	1.11072e-05	5422
bin	1.11784e-05	5431
bin	1.12496e-05	5632
bin	1.13208e-05	5481
bin	1.1392e-05	5414
bin	1.14632e-05	5462
bin	1.15344e-05	5419
bin	1.16056e-05	5276
bin	1.16768e-05	5372
bin	1.1748e-05	5355
bin	1.18192e-05	5250
bin	1.18904e-05	5303
bin	1.19616e-05	5165
bin	1.20328e-05	5185
bin	1.2104e-05	5257
bin	1.21752e-05	5286
bin	1.22464e-05	5126
bin	1.23176e-05	5285
bin	1.23888e-05	5182
bin	1.246e-05	5272
bin	1.25312e-05	5236
bin	1.26024e-05	5365
bin	1.26736e-05	5196
bin	1.27448e-05	5199
bin	1.2816e-05	5307
bin	1.28872e-05	5281
bin	1.29584e-05	5145
bin	1.30296e-05	5161
bin	1.31008e-05	5152
bin	1.3172e-05	5142
bin	1.32432e-05	5186
bin	1.33144e-05	5100
bin	1.33856e-05	5168
bin	1.34568e-05	5163
bin	1.3528e-05	5143
bin	1.35992e-05	5017
bin	1.36704e-05	5085
bin	1.37416e-05	5070
bin	1.38128e-05	5006
bin	1.3884e-05	5034
bin	1.39552e-05	5033
bin	1.40264e-05	5150
bin	1.40976e-05	4931
bin	1.41688e-05	5135
bin	1.424e-05	4957
bin	1.43112e-05	4973
bin	1.43824e-05	5099
bin	1.44536e-05	5103
bin	1.45248e-05	5029
bin	1.4596e-05	5135
bin	1.46672e-05	4952
bin	1.47384e-05	4983
bin	1.48096e-05	4875
bin	1.48808e-05	4781
bin	1.4952e-05	4910
bin	1.50232e-05	4897
bin	1.50944e-05	4964
bin	1.51656e-05	4913
bin	1.52368e-05	4953
bin	1.5308e-05	4938
bin	1.53792e-05	4855
bin	1.54504e-05	4727
bin	1.55216e-05	4829
bin	1.55928e-05	4782
bin	1.5664e-05	4734
bin	1.57352e-05	4887
bin	1.58064e-05	4875
bin	1.58776e-05	4909
bin	1.59488e-05	4729
bin	1.602e-05	4710
bin	1.60912e-05	4769
bin	1.61624e-05	4737
bin	1.62336e-05	4902
bin	1.63048e-05	4729
bin	1.6376e-05	4799
bin	1.64472e-05	4762
bin	1.65184e-05	4726
bin	1.65896e-05	4720
bin	1.66608e-05	4699
bin	1.6732e-05	4751
bin	1.68032e-05	4668
bin	1.68744e-05	4782
bin	1.69456e-05	4829
bin	1.70168e-05	4680
bin	1.7088e-05	4705
bin	1.71592e-05	4659
bin	1.72304e-05	4692
bin	1.73016e-05	4678
bin	1.73728e-05	4585
bin	1.7444e-05	4541
bin	1.75152e-05	4628
bin	1.75864e-05	4619
bin	1.76576e-05	4638
bin	1.77288e-05	4695
bin	1.78e-05	4499
bin	1.78712e-05	4539
bin	1.79424e-05	4547
bin	1.80136e-05	4580
bin	1.80848e-05	4458
bin	1.8156e-05	4505
bin	1.82272e-05	4539
bin	1.82984e-05	4543
bin	1.83696e-05	4507
bin	1.84408e-05	4647
bin	1.8512e-05	4419
bin	1.85832e-05	4569
bin	1.86544e-05	4445
bin	1.87256e-05	4454
bin	1.87968e-05	4550
bin	1.8868e-05	4533
bin	1.89392e-05	4449
bin	1.90104e-05	4488
bin	1.90816e-05	4491
bin	1.91528e-05	4559
bin	1.9224e-05	4365
bin	1.92952e-05	4449
bin	1.93664e-05	4376
bin	1.94376e-05	4465
bin	1.95088e-05	4523
bin	1.958e-05	4594
bin	1.96512e-05	4433
bin	1.97224e-05	4347
bin	1.97936e-05	4315
bin	1.98648e-05	4529
bin	1.9936e-05	4346
bin	2.00072e-05	4260
bin	2.00784e-05	4401
bin	2.01496e-05	4350
bin	2.02208e-05	4345
bin	2.0292e-05	4295
bin	2.03632e-05	4485
bin	2.04344e-05	4319
bin	2.05056e-05	4286
bin	2.05768e-05	4406
bin	2.0648e-05	4326
bin	2.07192e-05	4281
bin	2.07904e-05	4399
bin	2.08616e-05	4262
bin	2.09328e-05	4300
bin	2.1004e-05	4343
bin	2.10752e-05	4347
bin	2.11464e-05	4271
bin	2.12176e-05	4398
bin	2.12888e-05	4435
bin	2.136e-05	4378
bin	2.14312e-05	4191
bin	2.15024e-05	4314
bin	2.15736e-05	4311
bin	2.16448e-05	4322
bin	2.1716e-05	4269
bin	2.17872e-05	4175
bin	2.18584e-05	4194
bin	2.19296e-05	4227
bin	2.20008e-05	4229
bin	2.2072e-05	4366
bin	2.21432e-05	4232
bin	2.22144e-05	4202
bin	2.22856e-05	4359
bin	2.23568e-05	4316
bin	2.2428e-05	4186
bin	2.24992e-05	4233
bin	2.25704e-05	4130
bin	2.26416e-05	4273
bin	2.27128e-05	4228
bin	2.2784e-05	4192
bin	2.28552e-05	4198
bin	2.29264e-05	4111
bin	2.29976e-05	4047
bin	2.30688e-05	4115
bin	2.314e-05	4207
bin	2.32112e-05	4214
bin	2.32824e-05	4219
bin	2.33536e-05	4104
bin	2.34248e-05	4194
bin	2.3496e-05	4251
bin	2.35672e-05	4130
bin	2.36384e-05	4213
bin	2.37096e-05	4221
bin	2.37808e-05	4115
bin	2.3852e-05	4178
bin	2.39232e-05	4209
bin	2.39944e-05	4068
bin	2.40656e-05	4074
bin	2.41368e-05	4042
bin	2.4208e-05	4077
bin	2.42792e-05	4130
bin	2.43504e-05	4165
bin	2.44216e-05	4049
bin	2.44928e-05	4063
bin	2.4564e-05	4150
bin	2.46352e-05	4235
bin	2.47064e-05	4222
bin	2.47776e-05	4217
bin	2.48488e-05	4132
bin	2.492e-05	4178
bin	2.49912e-05	4146
bin	2.50624e-05	4139
bin	2.51336e-05	4262
bin	2.52048e-05	4121
bin	2.5276e-05	4088
bin	2.53472e-05	3987
bin	2.54184e-05	4046
bin	2.54896e-05	4086
bin	2.55608e-05	4173
bin	2.5632e-05	3996
bin	2.57032e-05	3915
bin	2.57744e-05	3993
bin	2.58456e-05	4127
bin	2.59168e-05	4066
bin	2.5988e-05	4055
bin	2.60592e-05	4019
bin	2.61304e-05	4062
bin	2.62016e-05	4019
bin	2.62728e-05	3909
bin	2.6344e-05	3915
bin	2.64152e-05	3850
bin	2.64864e-05	4048
bin	2.65576e-05	4017
bin	2.66288e-05	3939
bin	2.67e-05	3946
bin	2.67712e-05	3914
bin	2.68424e-05	3927
bin	2.69136e-05	3902
bin	2.69848e-05	4004
bin	2.7056e-05	4028
bin	2.71272e-05	4008
bin	2.71984e-05	4022
bin	2.72696e-05	4101
bin	2.73408e-05	4087
bin	2.7412e-05	4088
bin	2.74832e-05	4009
bin	2.75544e-05	4070
bin	2.76256e-05	4059
bin	2.76968e-05	4208
bin	2.7768e-05	3926
bin	2.78392e-05	3960
bin	2.79104e-05	3948
bin	2.79816e-05	4038
bin	2.80528e-05	4084
bin	2.8124e-05	4015
bin	2.81952e-05	3978
bin	2.82664e-05	3885
bin	2.83376e-05	4055
bin	2.84088e-05	4122
bin	2.848e-05	4072
bin	2.85512e-05	4000
bin	2.86224e-05	3970
bin	2.86936e-05	3981
bin	2.87648e-05	4000
bin	2.8836e-05	3984
bin	2.89072e-05	3917
bin	2.89784e-05	3999
bin	2.90496e-05	3951
bin	2.91208e-05	4034
bin	2.9192e-05	3909
bin	2.92632e-05	3974
bin	2.93344e-05	4144
bin	2.94056e-05	4077
bin	2.94768e-05	3965
bin	2.9548e-05	4075
bin	2.96192e-05	3994
bin	2.96904e-05	3946
bin	2.97616e-05	3938
bin	2.98328e-05	3894
bin	2.9904e-05	4000
bin	2.99752e-05	3930
bin	3.00464e-05	3747
bin	3.01176e-05	4034
bin	3.01888e-05	3953
bin	3.026e-05	4048
bin	3.03312e-05	3909
bin	3.04024e-05	3938
bin	3.04736e-05	4004
bin	3.05448e-05	4022
bin	3.0616e-05	3879
bin	3.06872e-05	3872
bin	3.07584e-05	3940
bin	3.08296e-05	3978
bin	3.09008e-05	3920
bin	3.0972e-05	4065
bin	3.10432e-05	4023
bin	3.11144e-05	4054
bin	3.11856e-05	3985
bin	3.12568e-05	3908
bin	3.1328e-05	3923
bin	3.13992e-05	3818
bin	3.14704e-05	3896
bin	3.15416e-05	3909
bin	3.16128e-05	3923
bin	3.1684e-05	3880
bin	3.17552e-05	3880
bin	3.18264e-05	4018
bin	3.18976e-05	3945
bin	3.19688e-05	4037
bin	3.204e-05	3998
bin	3.21112e-05	3980
bin	3.21824e-05	3906
bin	3.22536e-05	3918
bin	3.23248e-05	3996
bin	3.2396e-05	3878
bin	3.24672e-05	4033
bin	3.25384e-05	3841
bin	3.26096e-05	3922
bin	3.26808e-05	3940
bin	3.2752e-05	3961
bin	3.28232e-05	3884
bin	3.28944e-05	3985
bin	3.29656e-05	3981
bin	3.30368e-05	3988
bin	3.3108e-05	4020
bin	3.31792e-05	3910
bin	3.32504e-05	3891
bin	3.33216e-05	3854
bin	3.33928e-05	4131
bin	3.3464e-05	3926
bin	3.35352e-05	3951
bin	3.36064e-05	3989
bin	3.36776e-05	4022
bin	3.37488e-05	3889
bin	3.382e-05	4086
bin	3.38912e-05	4042
bin	3.39624e-05	4102
bin	3.40336e-05	3980
bin	3.41048e-05	3988
bin	3.4176e-05	3981
bin	3.42472e-05	4113
bin	3.43184e-05	3951
bin	3.43896e-05	3915
bin	3.44608e-05	3914
bin	3.4532e-05	3870
bin	3.46032e-05	3901
bin	3.46744e-05	3912
bin	3.47456e-05	3948
bin	3.48168e-05	3858
bin	3.4888e-05	3896
bin	3.49592e-05	3853
bin	3.50304e-05	4007
bin	3.51016e-05	3969
bin	3.51728e-05	3871
bin	3.5244e-05	3903
bin	3.53152e-05	3933
bin	3.53864e-05	3904
bin	3.54576e-05	3840
bin	3.55288e-05	3924
bin	3.56e-05	2059271
statistic Torus3d_bub.timer 	"Life Times"
field count 6291456
field mean 0.00034706865581289
field stddev 0.00033506175236258
field sum 2183.5671770259
field sqrsum 1.464166589555
field min 1.64e-07
field max 0.001683240333237
bin	-INF	0
bin	0	89
bin	8.544e-07	716
bin	1.7088e-06	2116
bin	2.5632e-06	3985
bin	3.4176e-06	6112
bin	4.272e-06	8436
bin	5.1264e-06	10784
bin	5.9808e-06	13083
bin	6.8352e-06	15500
bin	7.6896e-06	18178
bin	8.544e-06	21257
bin	9.3984e-06	23676
bin	1.02528e-05	25970
bin	1.11072e-05	27487
bin	1.19616e-05	28857
bin	1.2816e-05	31015
bin	1.36704e-05	33246
bin	1.45248e-05	35448
bin	1.53792e-05	37476
bin	1.62336e-05	39858
bin	1.7088e-05	42139
bin	1.79424e-05	44735
bin	1.87968e-05	47013
bin	1.96512e-05	48839
bin	2.05056e-05	51435
bin	2.136e-05	53812
bin	2.22144e-05	55987
bin	2.30688e-05	58556
bin	2.39232e-05	60245
bin	2.47776e-05	61464
bin	2.5632e-05	62866
bin	2.64864e-05	63489
bin	2.73408e-05	64060
bin	2.81952e-05	63553
bin	2.90496e-05	62815
bin	2.9904e-05	61481
bin	3.07584e-05	59003
bin	3.16128e-05	55279
bin	3.24672e-05	50888
bin	3.33216e-05	46871
bin	3.4176e-05	42779
bin	3.50304e-05	39109
bin	3.58848e-05	35898
bin	3.67392e-05	32987
bin	3.75936e-05	29795
bin	3.8448e-05	27346
bin	3.93024e-05	25180
bin	4.01568e-05	22785
bin	4.10112e-05	20916
bin	4.18656e-05	19161
bin	4.272e-05	18112
bin	4.35744e-05	16808
bin	4.44288e-05	16201
bin	4.52832e-05	15567
bin	4.61376e-05	14976
bin	4.6992e-05	14466
bin	4.78464e-05	14148
bin	4.87008e-05	13862
bin	4.95552e-05	13435
bin	5.04096e-05	13473
bin	5.1264e-05	13001
bin	5.21184e-05	12865
bin	5.29728e-05	12615
bin	5.38272e-05	12614
bin	5.46816e-05	12707
bin	5.5536e-05	12272
bin	5.63904e-05	12410
bin	5.72448e-05	12402
bin	5.80992e-05	12009
bin	5.89536e-05	11958
bin	5.9808e-05	11912
bin	6.06624e-05	11866
bin	6.15168e-05	11998
bin	6.23712e-05	11688
bin	6.32256e-05	11484
bin	6.408e-05	10965
bin	6.49344e-05	10435
bin	6.57888e-05	10026
bin	6.66432e-05	9822
bin	6.74976e-05	9332
bin	6.8352e-05	9078
bin	6.92064e-05	8796
bin	7.00608e-05	8438
bin	7.09152e-05	8184
bin	7.17696e-05	7863
bin	7.2624e-05	7458
bin	7.34784e-05	7383
bin	7.43328e-05	7194
bin	7.51872e-05	7041
bin	7.60416e-05	6976
bin	7.6896e-05	6972
bin	7.77504e-05	6807
bin	7.86048e-05	6662
bin	7.94592e-05	6669
bin	8.03136e-05	6679
bin	8.1168e-05	6499
bin	8.20224e-05	6638
bin	8.28768e-05	6708
bin	8.37312e-05	6686
bin	8.45856e-05	6592
bin	8.544e-05	6537
bin	8.62944e-05	6650
bin	8.71488e-05	6643
bin	8.80032e-05	6535
bin	8.88576e-05	6668
bin	8.9712e-05	6642
bin	9.05664e-05	6723
bin	9.14208e-05	6670
bin	9.22752e-05	6680
bin	9.31296e-05	6567
bin	9.3984e-05	6415
bin	9.48384e-05	6554
bin	9.56928e-05	6296
bin	9.65472e-05	6303
bin	9.74016e-05	6122
bin	9.8256e-05	6067
bin	9.91104e-05	5917
bin	9.99648e-05	5834
bin	0.0001008192	5753
bin	0.0001016736	5559
bin	0.000102528	5559
bin	0.0001033824	5483
bin	0.0001042368	5513
bin	0.0001050912	5419
bin	0.0001059456	5305
bin	0.0001068	5324
bin	0.0001076544	5371
bin	0.0001085088	5179
bin	0.0001093632	5114
bin	0.0001102176	5240
bin	0.000111072	5142
bin	0.0001119264	5204
bin	0.0001127808	5139
bin	0.0001136352	5217
bin	0.0001144896	5153
bin	0.000115344	5123
bin	0.0001161984	5249
bin	0.0001170528	5188
bin	0.0001179072	5199
bin	0.0001187616	5291
bin	0.000119616	5255
bin	0.0001204704	5242
bin	0.0001213248	5246
bin	0.0001221792	5312
bin	0.0001230336	5155
bin	0.000123888	5191
bin	0.0001247424	5245
bin	0.0001255968	5280
bin	0.0001264512	5167
bin	0.0001273056	5140
bin	0.00012816	5102
bin	0.0001290144	5022
bin	0.0001298688	4979
bin	0.0001307232	4969
bin	0.0001315776	5024
bin	0.000132432	4895
bin	0.0001332864	4892
bin	0.0001341408	4781
bin	0.0001349952	4821
bin	0.0001358496	4786
bin	0.000136704	4815
bin	0.0001375584	4792
bin	0.0001384128	4947
bin	0.0001392672	4739
bin	0.0001401216	4629
bin	0.000140976	4839
bin	0.0001418304	4664
bin	0.0001426848	4866
bin	0.0001435392	4738
bin	0.0001443936	4744
bin	0.000145248	4835
bin	0.0001461024	4696
bin	0.0001469568	4721
bin	0.0001478112	4779
bin	0.0001486656	4677
bin	0.00014952	4736
bin	0.0001503744	4761
bin	0.0001512288	4674
bin	0.0001520832	4646
bin	0.0001529376	4629
bin	0.000153792	4657
bin	0.0001546464	4699
bin	0.0001555008	4732
bin	0.0001563552	4774
bin	0.0001572096	4672
bin	0.000158064	4817
bin	0.0001589184	4746
bin	0.0001597728	4686
bin	0.0001606272	4719
bin	0.0001614816	4830
bin	0.000162336	4697
bin	0.0001631904	4672
bin	0.0001640448	4633
bin	0.0001648992	4564
bin	0.0001657536	4678
bin	0.000166608	4508
bin	0.0001674624	4652
bin	0.0001683168	4570
bin	0.0001691712	4644
bin	0.0001700256	4672
bin	0.00017088	4530
bin	0.0001717344	4512
bin	0.0001725888	4433
bin	0.0001734432	4404
bin	0.0001742976	4378
bin	0.000175152	4517
bin	0.0001760064	4440
bin	0.0001768608	4516
bin	0.0001777152	4484
bin	0.0001785696	4435
bin	0.000179424	4352
bin	0.0001802784	4388
bin	0.0001811328	4434
bin	0.0001819872	4444
bin	0.0001828416	4445
bin	0.000183696	4464
bin	0.0001845504	4341
bin	0.0001854048	4362
bin	0.0001862592	4481
bin	0.0001871136	4372
bin	0.000187968	4490
bin	0.0001888224	4314
bin	0.0001896768	4338
bin	0.0001905312	4218
bin	0.0001913856	4281
bin	0.00019224	4389
bin	0.0001930944	4238
bin	0.0001939488	4229
bin	0.0001948032	4320
bin	0.0001956576	4171
bin	0.000196512	4324
bin	0.0001973664	4129
bin	0.0001982208	4151
bin	0.0001990752	4149
bin	0.0001999296	4290
bin	0.000200784	4214
bin	0.0002016384	4255
bin	0.0002024928	4263
bin	0.0002033472	4218
bin	0.0002042016	4246
bin	0.000205056	4251
bin	0.0002059104	4145
bin	0.0002067648	4197
bin	0.0002076192	4104
bin	0.0002084736	4078
bin	0.000209328	4176
bin	0.0002101824	4239
bin	0.0002110368	4172
bin	0.0002118912	4193
bin	0.0002127456	4233
bin	0.0002136	4270
bin	0.0002144544	4107
bin	0.0002153088	4066
bin	0.0002161632	4207
bin	0.0002170176	4192
bin	0.000217872	4178
bin	0.0002187264	4118
bin	0.0002195808	4133
bin	0.0002204352	4199
bin	0.0002212896	4273
bin	0.000222144	4128
bin	0.0002229984	4179
bin	0.0002238528	4101
bin	0.0002247072	4176
bin	0.0002255616	4139
bin	0.000226416	4158
bin	0.0002272704	4214
bin	0.0002281248	4145
bin	0.0002289792	4174
bin	0.0002298336	4117
bin	0.000230688	4115
bin	0.0002315424	4131
bin	0.0002323968	4171
bin	0.0002332512	4109
bin	0.0002341056	4029
bin	0.00023496	3981
bin	0.0002358144	4080
bin	0.0002366688	4029
bin	0.0002375232	4053
bin	0.0002383776	4144
bin	0.000239232	4120
bin	0.0002400864	4083
bin	0.0002409408	4208
bin	0.0002417952	4185
bin	0.0002426496	4143
bin	0.000243504	4021
bin	0.0002443584	4002
bin	0.0002452128	3926
bin	0.0002460672	4004
bin	0.0002469216	4156
bin	0.000247776	3943
bin	0.0002486304	3952
bin	0.0002494848	3910
bin	0.0002503392	3909
bin	0.0002511936	3869
bin	0.000252048	3861
bin	0.0002529024	3901
bin	0.0002537568	3850
bin	0.0002546112	3885
bin	0.0002554656	3897
bin	0.00025632	3773
bin	0.0002571744	3757
bin	0.0002580288	3860
bin	0.0002588832	3812
bin	0.0002597376	3733
bin	0.000260592	3733
bin	0.0002614464	3752
bin	0.0002623008	3880
bin	0.0002631552	3867
bin	0.0002640096	3973
bin	0.000264864	3951
bin	0.0002657184	3957
bin	0.0002665728	3871
bin	0.0002674272	3818
bin	0.0002682816	3786
bin	0.000269136	3906
bin	0.0002699904	3901
bin	0.0002708448	3910
bin	0.0002716992	3802
bin	0.0002725536	3928
bin	0.000273408	3796
bin	0.0002742624	3904
bin	0.0002751168	3865
bin	0.0002759712	3898
bin	0.0002768256	3871
bin	0.00027768	3859
bin	0.0002785344	3791
bin	0.0002793888	3823
bin	0.0002802432	3837
bin	0.0002810976	3761
bin	0.000281952	3752
bin	0.0002828064	3696
bin	0.0002836608	3739
bin	0.0002845152	3872
bin	0.0002853696	3810
bin	0.000286224	3766
bin	0.0002870784	3734
bin	0.0002879328	3752
bin	0.0002887872	3683
bin	0.0002896416	3670
bin	0.000290496	3684
bin	0.0002913504	3760
bin	0.0002922048	3743
bin	0.0002930592	3785
bin	0.0002939136	3823
bin	0.000294768	3762
bin	0.0002956224	3804
bin	0.0002964768	3679
bin	0.0002973312	3741
bin	0.0002981856	3700
bin	0.00029904	3766
bin	0.0002998944	3636
bin	0.0003007488	3768
bin	0.0003016032	3729
bin	0.0003024576	3655
bin	0.000303312	3663
bin	0.0003041664	3741
bin	0.0003050208	3709
bin	0.0003058752	3790
bin	0.0003067296	3738
bin	0.000307584	3632
bin	0.0003084384	3610
bin	0.0003092928	3620
bin	0.0003101472	3666
bin	0.0003110016	3568
bin	0.000311856	3566
bin	0.0003127104	3594
bin	0.0003135648	3597
bin	0.0003144192	3602
bin	0.0003152736	3464
bin	0.000316128	3635
bin	0.0003169824	3641
bin	0.0003178368	3656
bin	0.0003186912	3541
bin	0.0003195456	3605
bin	0.0003204	3529
bin	0.0003212544	3459
bin	0.0003221088	3536
bin	0.0003229632	3536
bin	0.0003238176	3459
bin	0.000324672	3513
bin	0.0003255264	3437
bin	0.0003263808	3421
bin	0.0003272352	3555
bin	0.0003280896	3528
bin	0.000328944	3503
bin	0.0003297984	3491
bin	0.0003306528	3508
bin	0.0003315072	3632
bin	0.0003323616	3537
bin	0.000333216	3575
bin	0.0003340704	3534
bin	0.0003349248	3575
bin	0.0003357792	3537
bin	0.0003366336	3590
bin	0.000337488	3518
bin	0.0003383424	3526
bin	0.0003391968	3488
bin	0.0003400512	3554
bin	0.0003409056	3598
bin	0.00034176	3550
bin	0.0003426144	3504
bin	0.0003434688	3628
bin	0.0003443232	3569
bin	0.0003451776	3424
bin	0.000346032	3462
bin	0.0003468864	3480
bin	0.0003477408	3555
bin	0.0003485952	3487
bin	0.0003494496	3523
bin	0.000350304	3469
bin	0.0003511584	3471
bin	0.0003520128	3553
bin	0.0003528672	3463
bin	0.0003537216	3459
bin	0.000354576	3369
bin	0.0003554304	3346
bin	0.0003562848	3506
bin	0.0003571392	3511
bin	0.0003579936	3524
bin	0.000358848	3398
bin	0.0003597024	3416
bin	0.0003605568	3335
bin	0.0003614112	3318
bin	0.0003622656	3392
bin	0.00036312	3378
bin	0.0003639744	3417
bin	0.0003648288	3354
bin	0.0003656832	3422
bin	0.0003665376	3401
bin	0.000367392	3307
bin	0.0003682464	3402
bin	0.0003691008	3441
bin	0.0003699552	3366
bin	0.0003708096	3362
bin	0.000371664	3265
bin	0.0003725184	3352
bin	0.0003733728	3295
bin	0.0003742272	3294
bin	0.0003750816	3325
bin	0.000375936	3257
bin	0.0003767904	3330
bin	0.0003776448	3287
bin	0.0003784992	3265
bin	0.0003793536	3250
bin	0.000380208	3196
bin	0.0003810624	3234
bin	0.0003819168	3326
bin	0.0003827712	3399
bin	0.0003836256	3321
bin	0.00038448	3316
bin	0.0003853344	3343
bin	0.0003861888	3251
bin	0.0003870432	3318
bin	0.0003878976	3301
bin	0.000388752	3284
bin	0.0003896064	3201
bin	0.0003904608	3247
bin	0.0003913152	3235
bin	0.0003921696	3221
bin	0.000393024	3305
bin	0.0003938784	3222
bin	0.0003947328	3151
bin	0.0003955872	3213
bin	0.0003964416	3303
bin	0.000397296	3258
bin	0.0003981504	3272
bin	0.0003990048	3324
bin	0.0003998592	3169
bin	0.0004007136	3314
bin	0.000401568	3320
bin	0.0004024224	3350
bin	0.0004032768	3204
bin	0.0004041312	3164
bin	0.0004049856	3188
bin	0.00040584	3255
bin	0.0004066944	3265
bin	0.0004075488	3278
bin	0.0004084032	3111
bin	0.0004092576	3255
bin	0.000410112	3183
bin	0.0004109664	3189
bin	0.0004118208	3190
bin	0.0004126752	3093
bin	0.0004135296	3256
bin	0.000414384	3157
bin	0.0004152384	3192
bin	0.0004160928	3169
bin	0.0004169472	3213
bin	0.0004178016	3165
bin	0.000418656	3158
bin	0.0004195104	3040
bin	0.0004203648	3113
bin	0.0004212192	3035
bin	0.0004220736	3135
bin	0.000422928	3049
bin	0.0004237824	3136
bin	0.0004246368	3209
bin	0.0004254912	3197
bin	0.0004263456	3117
bin	0.0004272	2324388
