version 2
run Uniform-72-20120709-18:23:46-24851
attr alg 0
attr buf 8
attr configname Uniform
attr datetime 20120709-18:23:46
attr delta 0.8
attr experiment Uniform
attr ext false
attr inifile altro.ini
attr iterationvars "$buf=8, $ext=false, $ofedge=2, $delta=0.8, $alg=0"
attr iterationvars2 "$buf=8, $ext=false, $ofedge=2, $delta=0.8, $alg=0, $repetition=0"
attr measurement "$buf=8, $ext=false, $ofedge=2, $delta=0.8, $alg=0"
attr network Torus3d_bub
attr ofedge 2
attr processid 24851
attr repetition 0
attr replication #0
attr resultdir altro-results
attr runnumber 72
attr seedset 72

scalar . 	alg 	0
scalar . 	buf 	8
scalar . 	delta 	0.8
scalar . 	ofedge 	2
scalar Torus3d_bub.timer 	#endTime 	0.001503284331013
scalar Torus3d_bub.timer 	#totalHops 	75477600
scalar Torus3d_bub.timer 	#totalPacks 	6291456
scalar Torus3d_bub.timer 	#totalDerouted 	0
scalar Torus3d_bub.timer 	#totalOutFlanked 	0
scalar Torus3d_bub.timer 	#totalCQRed 	0
scalar Torus3d_bub.timer 	#LB 	0.000786432
scalar Torus3d_bub.timer 	#ratio 	0.52314255113007
statistic Torus3d_bub.timer 	"Hop Times"
field count 6290208
field mean 1.9524255030157e-05
field stddev 2.2981217697848e-05
field sum 122.81162518473
field sqrsum 0.005719892562652
field min 3.765e-07
field max 0.000788655998588
bin	-INF	0
bin	0	0
bin	7.12e-08	0
bin	1.424e-07	0
bin	2.136e-07	0
bin	2.848e-07	0
bin	3.56e-07	233
bin	4.272e-07	1749
bin	4.984e-07	4235
bin	5.696e-07	7052
bin	6.408e-07	10726
bin	7.12e-07	14071
bin	7.832e-07	17149
bin	8.544e-07	20006
bin	9.256e-07	22440
bin	9.968e-07	24543
bin	1.068e-06	26932
bin	1.1392e-06	30014
bin	1.2104e-06	32445
bin	1.2816e-06	35994
bin	1.3528e-06	39891
bin	1.424e-06	44007
bin	1.4952e-06	48115
bin	1.5664e-06	52322
bin	1.6376e-06	55968
bin	1.7088e-06	59065
bin	1.78e-06	61154
bin	1.8512e-06	61741
bin	1.9224e-06	62404
bin	1.9936e-06	62371
bin	2.0648e-06	60936
bin	2.136e-06	59490
bin	2.2072e-06	57549
bin	2.2784e-06	55353
bin	2.3496e-06	53133
bin	2.4208e-06	50924
bin	2.492e-06	48062
bin	2.5632e-06	45717
bin	2.6344e-06	43314
bin	2.7056e-06	41216
bin	2.7768e-06	39006
bin	2.848e-06	37394
bin	2.9192e-06	35374
bin	2.9904e-06	34239
bin	3.0616e-06	32459
bin	3.1328e-06	31086
bin	3.204e-06	29601
bin	3.2752e-06	28644
bin	3.3464e-06	27249
bin	3.4176e-06	26390
bin	3.4888e-06	25584
bin	3.56e-06	24586
bin	3.6312e-06	23876
bin	3.7024e-06	22966
bin	3.7736e-06	22141
bin	3.8448e-06	21778
bin	3.916e-06	21001
bin	3.9872e-06	20325
bin	4.0584e-06	19803
bin	4.1296e-06	19132
bin	4.2008e-06	18585
bin	4.272e-06	18320
bin	4.3432e-06	18070
bin	4.4144e-06	17505
bin	4.4856e-06	17104
bin	4.5568e-06	16838
bin	4.628e-06	16537
bin	4.6992e-06	16029
bin	4.7704e-06	15711
bin	4.8416e-06	15706
bin	4.9128e-06	15555
bin	4.984e-06	14898
bin	5.0552e-06	14930
bin	5.1264e-06	14442
bin	5.1976e-06	14284
bin	5.2688e-06	13886
bin	5.34e-06	13656
bin	5.4112e-06	13735
bin	5.4824e-06	13382
bin	5.5536e-06	13300
bin	5.6248e-06	13087
bin	5.696e-06	13033
bin	5.7672e-06	12723
bin	5.8384e-06	12469
bin	5.9096e-06	12441
bin	5.9808e-06	12222
bin	6.052e-06	12124
bin	6.1232e-06	11910
bin	6.1944e-06	11913
bin	6.2656e-06	12037
bin	6.3368e-06	11647
bin	6.408e-06	11647
bin	6.4792e-06	11487
bin	6.5504e-06	11249
bin	6.6216e-06	11261
bin	6.6928e-06	11259
bin	6.764e-06	11232
bin	6.8352e-06	10950
bin	6.9064e-06	10752
bin	6.9776e-06	10804
bin	7.0488e-06	10679
bin	7.12e-06	10552
bin	7.1912e-06	10564
bin	7.2624e-06	10367
bin	7.3336e-06	10417
bin	7.4048e-06	10286
bin	7.476e-06	10346
bin	7.5472e-06	10205
bin	7.6184e-06	10113
bin	7.6896e-06	10095
bin	7.7608e-06	10081
bin	7.832e-06	9912
bin	7.9032e-06	9975
bin	7.9744e-06	9780
bin	8.0456e-06	9825
bin	8.1168e-06	9851
bin	8.188e-06	9725
bin	8.2592e-06	9601
bin	8.3304e-06	9772
bin	8.4016e-06	9605
bin	8.4728e-06	9488
bin	8.544e-06	9446
bin	8.6152e-06	9401
bin	8.6864e-06	9382
bin	8.7576e-06	9281
bin	8.8288e-06	9421
bin	8.9e-06	9209
bin	8.9712e-06	9158
bin	9.0424e-06	9257
bin	9.1136e-06	9303
bin	9.1848e-06	9166
bin	9.256e-06	9281
bin	9.3272e-06	9094
bin	9.3984e-06	9110
bin	9.4696e-06	9077
bin	9.5408e-06	9040
bin	9.612e-06	8923
bin	9.6832e-06	8790
bin	9.7544e-06	8920
bin	9.8256e-06	8748
bin	9.8968e-06	8948
bin	9.968e-06	8799
bin	1.00392e-05	8614
bin	1.01104e-05	8800
bin	1.01816e-05	8912
bin	1.02528e-05	8704
bin	1.0324e-05	8525
bin	1.03952e-05	8627
bin	1.04664e-05	8687
bin	1.05376e-05	8663
bin	1.06088e-05	8519
bin	1.068e-05	8376
bin	1.07512e-05	8492
bin	1.08224e-05	8435
bin	1.08936e-05	8488
bin	1.09648e-05	8450
bin	1.1036e-05	8339
bin	1.11072e-05	8223
bin	1.11784e-05	8488
bin	1.12496e-05	8398
bin	1.13208e-05	8316
bin	1.1392e-05	8485
bin	1.14632e-05	8317
bin	1.15344e-05	8202
bin	1.16056e-05	8528
bin	1.16768e-05	8458
bin	1.1748e-05	8272
bin	1.18192e-05	8299
bin	1.18904e-05	8112
bin	1.19616e-05	8351
bin	1.20328e-05	8158
bin	1.2104e-05	8110
bin	1.21752e-05	8179
bin	1.22464e-05	8172
bin	1.23176e-05	8225
bin	1.23888e-05	8234
bin	1.246e-05	8114
bin	1.25312e-05	8102
bin	1.26024e-05	8054
bin	1.26736e-05	8220
bin	1.27448e-05	8120
bin	1.2816e-05	8212
bin	1.28872e-05	8025
bin	1.29584e-05	8054
bin	1.30296e-05	7969
bin	1.31008e-05	7932
bin	1.3172e-05	7890
bin	1.32432e-05	7867
bin	1.33144e-05	7874
bin	1.33856e-05	7718
bin	1.34568e-05	7776
bin	1.3528e-05	7760
bin	1.35992e-05	7786
bin	1.36704e-05	7786
bin	1.37416e-05	7684
bin	1.38128e-05	7645
bin	1.3884e-05	7766
bin	1.39552e-05	7853
bin	1.40264e-05	7733
bin	1.40976e-05	7631
bin	1.41688e-05	7753
bin	1.424e-05	7997
bin	1.43112e-05	7797
bin	1.43824e-05	7914
bin	1.44536e-05	7765
bin	1.45248e-05	7675
bin	1.4596e-05	7707
bin	1.46672e-05	7729
bin	1.47384e-05	7665
bin	1.48096e-05	7764
bin	1.48808e-05	7660
bin	1.4952e-05	7584
bin	1.50232e-05	7728
bin	1.50944e-05	7805
bin	1.51656e-05	7617
bin	1.52368e-05	7667
bin	1.5308e-05	7708
bin	1.53792e-05	7923
bin	1.54504e-05	7807
bin	1.55216e-05	7840
bin	1.55928e-05	7663
bin	1.5664e-05	7684
bin	1.57352e-05	7760
bin	1.58064e-05	7622
bin	1.58776e-05	7588
bin	1.59488e-05	7620
bin	1.602e-05	7561
bin	1.60912e-05	7717
bin	1.61624e-05	7645
bin	1.62336e-05	7648
bin	1.63048e-05	7508
bin	1.6376e-05	7618
bin	1.64472e-05	7703
bin	1.65184e-05	7483
bin	1.65896e-05	7468
bin	1.66608e-05	7386
bin	1.6732e-05	7536
bin	1.68032e-05	7460
bin	1.68744e-05	7385
bin	1.69456e-05	7413
bin	1.70168e-05	7391
bin	1.7088e-05	7403
bin	1.71592e-05	7390
bin	1.72304e-05	7321
bin	1.73016e-05	7208
bin	1.73728e-05	7236
bin	1.7444e-05	7401
bin	1.75152e-05	7253
bin	1.75864e-05	7385
bin	1.76576e-05	7121
bin	1.77288e-05	7252
bin	1.78e-05	7316
bin	1.78712e-05	7262
bin	1.79424e-05	7245
bin	1.80136e-05	7165
bin	1.80848e-05	7211
bin	1.8156e-05	7369
bin	1.82272e-05	7349
bin	1.82984e-05	7222
bin	1.83696e-05	7293
bin	1.84408e-05	7330
bin	1.8512e-05	7176
bin	1.85832e-05	7113
bin	1.86544e-05	7166
bin	1.87256e-05	7203
bin	1.87968e-05	7239
bin	1.8868e-05	7297
bin	1.89392e-05	7324
bin	1.90104e-05	7062
bin	1.90816e-05	7224
bin	1.91528e-05	7296
bin	1.9224e-05	7149
bin	1.92952e-05	7116
bin	1.93664e-05	7023
bin	1.94376e-05	7137
bin	1.95088e-05	7124
bin	1.958e-05	7273
bin	1.96512e-05	7309
bin	1.97224e-05	7191
bin	1.97936e-05	7050
bin	1.98648e-05	7246
bin	1.9936e-05	7241
bin	2.00072e-05	7147
bin	2.00784e-05	7205
bin	2.01496e-05	6972
bin	2.02208e-05	6953
bin	2.0292e-05	7047
bin	2.03632e-05	7171
bin	2.04344e-05	7250
bin	2.05056e-05	7158
bin	2.05768e-05	7046
bin	2.0648e-05	7010
bin	2.07192e-05	7113
bin	2.07904e-05	7071
bin	2.08616e-05	7022
bin	2.09328e-05	6979
bin	2.1004e-05	7093
bin	2.10752e-05	7232
bin	2.11464e-05	7114
bin	2.12176e-05	7173
bin	2.12888e-05	7026
bin	2.136e-05	7038
bin	2.14312e-05	7078
bin	2.15024e-05	6945
bin	2.15736e-05	6802
bin	2.16448e-05	7059
bin	2.1716e-05	6934
bin	2.17872e-05	6919
bin	2.18584e-05	6979
bin	2.19296e-05	7036
bin	2.20008e-05	6908
bin	2.2072e-05	6802
bin	2.21432e-05	7012
bin	2.22144e-05	6879
bin	2.22856e-05	6908
bin	2.23568e-05	6867
bin	2.2428e-05	6856
bin	2.24992e-05	6933
bin	2.25704e-05	7052
bin	2.26416e-05	6793
bin	2.27128e-05	6759
bin	2.2784e-05	6938
bin	2.28552e-05	6896
bin	2.29264e-05	6943
bin	2.29976e-05	7000
bin	2.30688e-05	7047
bin	2.314e-05	6940
bin	2.32112e-05	6974
bin	2.32824e-05	6942
bin	2.33536e-05	6854
bin	2.34248e-05	6970
bin	2.3496e-05	6927
bin	2.35672e-05	6826
bin	2.36384e-05	6932
bin	2.37096e-05	7021
bin	2.37808e-05	6887
bin	2.3852e-05	6837
bin	2.39232e-05	6942
bin	2.39944e-05	6786
bin	2.40656e-05	6798
bin	2.41368e-05	6801
bin	2.4208e-05	6785
bin	2.42792e-05	6724
bin	2.43504e-05	6801
bin	2.44216e-05	6737
bin	2.44928e-05	6843
bin	2.4564e-05	6720
bin	2.46352e-05	6775
bin	2.47064e-05	6682
bin	2.47776e-05	6726
bin	2.48488e-05	6633
bin	2.492e-05	6638
bin	2.49912e-05	6748
bin	2.50624e-05	6784
bin	2.51336e-05	6826
bin	2.52048e-05	6647
bin	2.5276e-05	6699
bin	2.53472e-05	6502
bin	2.54184e-05	6629
bin	2.54896e-05	6573
bin	2.55608e-05	6807
bin	2.5632e-05	6725
bin	2.57032e-05	6643
bin	2.57744e-05	6568
bin	2.58456e-05	6654
bin	2.59168e-05	6643
bin	2.5988e-05	6640
bin	2.60592e-05	6642
bin	2.61304e-05	6407
bin	2.62016e-05	6592
bin	2.62728e-05	6480
bin	2.6344e-05	6699
bin	2.64152e-05	6558
bin	2.64864e-05	6781
bin	2.65576e-05	6655
bin	2.66288e-05	6507
bin	2.67e-05	6654
bin	2.67712e-05	6657
bin	2.68424e-05	6675
bin	2.69136e-05	6679
bin	2.69848e-05	6605
bin	2.7056e-05	6625
bin	2.71272e-05	6747
bin	2.71984e-05	6642
bin	2.72696e-05	6616
bin	2.73408e-05	6564
bin	2.7412e-05	6556
bin	2.74832e-05	6548
bin	2.75544e-05	6529
bin	2.76256e-05	6624
bin	2.76968e-05	6493
bin	2.7768e-05	6428
bin	2.78392e-05	6519
bin	2.79104e-05	6449
bin	2.79816e-05	6524
bin	2.80528e-05	6295
bin	2.8124e-05	6458
bin	2.81952e-05	6403
bin	2.82664e-05	6343
bin	2.83376e-05	6239
bin	2.84088e-05	6351
bin	2.848e-05	6237
bin	2.85512e-05	6232
bin	2.86224e-05	6224
bin	2.86936e-05	6107
bin	2.87648e-05	6132
bin	2.8836e-05	6223
bin	2.89072e-05	6118
bin	2.89784e-05	6193
bin	2.90496e-05	6016
bin	2.91208e-05	6069
bin	2.9192e-05	6042
bin	2.92632e-05	6026
bin	2.93344e-05	6102
bin	2.94056e-05	6008
bin	2.94768e-05	6118
bin	2.9548e-05	6021
bin	2.96192e-05	5949
bin	2.96904e-05	6081
bin	2.97616e-05	6008
bin	2.98328e-05	5862
bin	2.9904e-05	5993
bin	2.99752e-05	5945
bin	3.00464e-05	5883
bin	3.01176e-05	5889
bin	3.01888e-05	5875
bin	3.026e-05	5776
bin	3.03312e-05	5874
bin	3.04024e-05	5887
bin	3.04736e-05	5789
bin	3.05448e-05	5752
bin	3.0616e-05	5707
bin	3.06872e-05	5657
bin	3.07584e-05	5650
bin	3.08296e-05	5644
bin	3.09008e-05	5732
bin	3.0972e-05	5766
bin	3.10432e-05	5636
bin	3.11144e-05	5567
bin	3.11856e-05	5701
bin	3.12568e-05	5461
bin	3.1328e-05	5560
bin	3.13992e-05	5449
bin	3.14704e-05	5480
bin	3.15416e-05	5540
bin	3.16128e-05	5442
bin	3.1684e-05	5446
bin	3.17552e-05	5459
bin	3.18264e-05	5433
bin	3.18976e-05	5460
bin	3.19688e-05	5518
bin	3.204e-05	5363
bin	3.21112e-05	5480
bin	3.21824e-05	5379
bin	3.22536e-05	5423
bin	3.23248e-05	5338
bin	3.2396e-05	5275
bin	3.24672e-05	5275
bin	3.25384e-05	5303
bin	3.26096e-05	5133
bin	3.26808e-05	5281
bin	3.2752e-05	5247
bin	3.28232e-05	5091
bin	3.28944e-05	5246
bin	3.29656e-05	5125
bin	3.30368e-05	5215
bin	3.3108e-05	5230
bin	3.31792e-05	5050
bin	3.32504e-05	5074
bin	3.33216e-05	5113
bin	3.33928e-05	5015
bin	3.3464e-05	5114
bin	3.35352e-05	4965
bin	3.36064e-05	5013
bin	3.36776e-05	5094
bin	3.37488e-05	5003
bin	3.382e-05	4957
bin	3.38912e-05	4982
bin	3.39624e-05	4957
bin	3.40336e-05	4926
bin	3.41048e-05	4809
bin	3.4176e-05	4937
bin	3.42472e-05	4910
bin	3.43184e-05	4830
bin	3.43896e-05	4789
bin	3.44608e-05	4878
bin	3.4532e-05	4768
bin	3.46032e-05	4754
bin	3.46744e-05	4728
bin	3.47456e-05	4815
bin	3.48168e-05	4695
bin	3.4888e-05	4729
bin	3.49592e-05	4712
bin	3.50304e-05	4868
bin	3.51016e-05	4759
bin	3.51728e-05	4711
bin	3.5244e-05	4695
bin	3.53152e-05	4615
bin	3.53864e-05	4675
bin	3.54576e-05	4548
bin	3.55288e-05	4727
bin	3.56e-05	1049500
statistic Torus3d_bub.timer 	"Life Times"
field count 6291456
field mean 0.00020468798158193
field stddev 0.00018206490818125
field sum 1287.7854298515
field sqrsum 0.47214102782542
field min 3.77332757e-07
field max 0.001363357999711
bin	-INF	0
bin	0	65
bin	8.544e-07	632
bin	1.7088e-06	2147
bin	2.5632e-06	4182
bin	3.4176e-06	6484
bin	4.272e-06	8894
bin	5.1264e-06	11424
bin	5.9808e-06	13867
bin	6.8352e-06	16314
bin	7.6896e-06	19059
bin	8.544e-06	21756
bin	9.3984e-06	24527
bin	1.02528e-05	26628
bin	1.11072e-05	28479
bin	1.19616e-05	30534
bin	1.2816e-05	32566
bin	1.36704e-05	34880
bin	1.45248e-05	36973
bin	1.53792e-05	38653
bin	1.62336e-05	40648
bin	1.7088e-05	42909
bin	1.79424e-05	44988
bin	1.87968e-05	47307
bin	1.96512e-05	48716
bin	2.05056e-05	50842
bin	2.136e-05	52635
bin	2.22144e-05	54079
bin	2.30688e-05	55797
bin	2.39232e-05	56311
bin	2.47776e-05	56725
bin	2.5632e-05	56407
bin	2.64864e-05	56374
bin	2.73408e-05	55567
bin	2.81952e-05	54526
bin	2.90496e-05	54093
bin	2.9904e-05	52841
bin	3.07584e-05	51162
bin	3.16128e-05	48144
bin	3.24672e-05	45165
bin	3.33216e-05	42078
bin	3.4176e-05	39663
bin	3.50304e-05	36980
bin	3.58848e-05	34637
bin	3.67392e-05	32413
bin	3.75936e-05	30129
bin	3.8448e-05	28470
bin	3.93024e-05	26633
bin	4.01568e-05	25149
bin	4.10112e-05	23284
bin	4.18656e-05	21997
bin	4.272e-05	21111
bin	4.35744e-05	20120
bin	4.44288e-05	19506
bin	4.52832e-05	18902
bin	4.61376e-05	18214
bin	4.6992e-05	17781
bin	4.78464e-05	17434
bin	4.87008e-05	17205
bin	4.95552e-05	16725
bin	5.04096e-05	16402
bin	5.1264e-05	16490
bin	5.21184e-05	16304
bin	5.29728e-05	16184
bin	5.38272e-05	15996
bin	5.46816e-05	15919
bin	5.5536e-05	15832
bin	5.63904e-05	15604
bin	5.72448e-05	15544
bin	5.80992e-05	15479
bin	5.89536e-05	15410
bin	5.9808e-05	15451
bin	6.06624e-05	15404
bin	6.15168e-05	15321
bin	6.23712e-05	15273
bin	6.32256e-05	14734
bin	6.408e-05	14350
bin	6.49344e-05	14161
bin	6.57888e-05	13805
bin	6.66432e-05	13510
bin	6.74976e-05	13184
bin	6.8352e-05	12790
bin	6.92064e-05	12537
bin	7.00608e-05	12146
bin	7.09152e-05	11973
bin	7.17696e-05	11923
bin	7.2624e-05	11512
bin	7.34784e-05	11352
bin	7.43328e-05	11281
bin	7.51872e-05	11193
bin	7.60416e-05	10895
bin	7.6896e-05	10755
bin	7.77504e-05	10590
bin	7.86048e-05	10670
bin	7.94592e-05	10490
bin	8.03136e-05	10422
bin	8.1168e-05	10689
bin	8.20224e-05	10401
bin	8.28768e-05	10426
bin	8.37312e-05	10548
bin	8.45856e-05	10260
bin	8.544e-05	10251
bin	8.62944e-05	10270
bin	8.71488e-05	10239
bin	8.80032e-05	10196
bin	8.88576e-05	10135
bin	8.9712e-05	10319
bin	9.05664e-05	10281
bin	9.14208e-05	10487
bin	9.22752e-05	10333
bin	9.31296e-05	10197
bin	9.3984e-05	10271
bin	9.48384e-05	9967
bin	9.56928e-05	9967
bin	9.65472e-05	9713
bin	9.74016e-05	9827
bin	9.8256e-05	9672
bin	9.91104e-05	9593
bin	9.99648e-05	9490
bin	0.0001008192	9422
bin	0.0001016736	9317
bin	0.000102528	9283
bin	0.0001033824	9312
bin	0.0001042368	9129
bin	0.0001050912	9030
bin	0.0001059456	8904
bin	0.0001068	8995
bin	0.0001076544	8902
bin	0.0001085088	8834
bin	0.0001093632	9011
bin	0.0001102176	8791
bin	0.000111072	8794
bin	0.0001119264	8926
bin	0.0001127808	8751
bin	0.0001136352	8806
bin	0.0001144896	8954
bin	0.000115344	8809
bin	0.0001161984	8728
bin	0.0001170528	8722
bin	0.0001179072	8675
bin	0.0001187616	8718
bin	0.000119616	8791
bin	0.0001204704	8945
bin	0.0001213248	8690
bin	0.0001221792	8900
bin	0.0001230336	8752
bin	0.000123888	8803
bin	0.0001247424	8861
bin	0.0001255968	8686
bin	0.0001264512	8678
bin	0.0001273056	8559
bin	0.00012816	8656
bin	0.0001290144	8432
bin	0.0001298688	8584
bin	0.0001307232	8444
bin	0.0001315776	8376
bin	0.000132432	8398
bin	0.0001332864	8272
bin	0.0001341408	8236
bin	0.0001349952	8388
bin	0.0001358496	8423
bin	0.000136704	8287
bin	0.0001375584	8233
bin	0.0001384128	8139
bin	0.0001392672	8345
bin	0.0001401216	8264
bin	0.000140976	8174
bin	0.0001418304	8201
bin	0.0001426848	8245
bin	0.0001435392	8138
bin	0.0001443936	8074
bin	0.000145248	8060
bin	0.0001461024	8103
bin	0.0001469568	8170
bin	0.0001478112	8190
bin	0.0001486656	8150
bin	0.00014952	8124
bin	0.0001503744	8354
bin	0.0001512288	8129
bin	0.0001520832	8118
bin	0.0001529376	8223
bin	0.000153792	8212
bin	0.0001546464	8144
bin	0.0001555008	8215
bin	0.0001563552	8160
bin	0.0001572096	8199
bin	0.000158064	8042
bin	0.0001589184	8082
bin	0.0001597728	8022
bin	0.0001606272	8047
bin	0.0001614816	7995
bin	0.000162336	7955
bin	0.0001631904	8100
bin	0.0001640448	8046
bin	0.0001648992	7901
bin	0.0001657536	7950
bin	0.000166608	7922
bin	0.0001674624	7871
bin	0.0001683168	8035
bin	0.0001691712	7889
bin	0.0001700256	7921
bin	0.00017088	7974
bin	0.0001717344	7909
bin	0.0001725888	7947
bin	0.0001734432	7896
bin	0.0001742976	7800
bin	0.000175152	7769
bin	0.0001760064	7783
bin	0.0001768608	7773
bin	0.0001777152	7928
bin	0.0001785696	7729
bin	0.000179424	7730
bin	0.0001802784	7736
bin	0.0001811328	7536
bin	0.0001819872	7739
bin	0.0001828416	7694
bin	0.000183696	7884
bin	0.0001845504	7781
bin	0.0001854048	7846
bin	0.0001862592	7807
bin	0.0001871136	7636
bin	0.000187968	7653
bin	0.0001888224	7760
bin	0.0001896768	7643
bin	0.0001905312	7686
bin	0.0001913856	7590
bin	0.00019224	7567
bin	0.0001930944	7570
bin	0.0001939488	7438
bin	0.0001948032	7515
bin	0.0001956576	7433
bin	0.000196512	7531
bin	0.0001973664	7561
bin	0.0001982208	7404
bin	0.0001990752	7384
bin	0.0001999296	7316
bin	0.000200784	7314
bin	0.0002016384	7412
bin	0.0002024928	7352
bin	0.0002033472	7262
bin	0.0002042016	7410
bin	0.000205056	7371
bin	0.0002059104	7416
bin	0.0002067648	7413
bin	0.0002076192	7363
bin	0.0002084736	7388
bin	0.000209328	7272
bin	0.0002101824	7419
bin	0.0002110368	7379
bin	0.0002118912	7465
bin	0.0002127456	7264
bin	0.0002136	7395
bin	0.0002144544	7283
bin	0.0002153088	7319
bin	0.0002161632	7332
bin	0.0002170176	7236
bin	0.000217872	7390
bin	0.0002187264	7348
bin	0.0002195808	7295
bin	0.0002204352	7270
bin	0.0002212896	7339
bin	0.000222144	7211
bin	0.0002229984	7232
bin	0.0002238528	7177
bin	0.0002247072	7184
bin	0.0002255616	7176
bin	0.000226416	7162
bin	0.0002272704	6973
bin	0.0002281248	7155
bin	0.0002289792	7195
bin	0.0002298336	7207
bin	0.000230688	7251
bin	0.0002315424	7275
bin	0.0002323968	7221
bin	0.0002332512	7149
bin	0.0002341056	7184
bin	0.00023496	7274
bin	0.0002358144	7270
bin	0.0002366688	7380
bin	0.0002375232	7022
bin	0.0002383776	7039
bin	0.000239232	7131
bin	0.0002400864	7064
bin	0.0002409408	7204
bin	0.0002417952	7100
bin	0.0002426496	6920
bin	0.000243504	7125
bin	0.0002443584	6981
bin	0.0002452128	6946
bin	0.0002460672	6958
bin	0.0002469216	6922
bin	0.000247776	6931
bin	0.0002486304	7004
bin	0.0002494848	6998
bin	0.0002503392	7039
bin	0.0002511936	6979
bin	0.000252048	7115
bin	0.0002529024	7176
bin	0.0002537568	6972
bin	0.0002546112	6966
bin	0.0002554656	7104
bin	0.00025632	7049
bin	0.0002571744	6974
bin	0.0002580288	6921
bin	0.0002588832	6831
bin	0.0002597376	6972
bin	0.000260592	7053
bin	0.0002614464	6758
bin	0.0002623008	6892
bin	0.0002631552	7097
bin	0.0002640096	6855
bin	0.000264864	6944
bin	0.0002657184	6886
bin	0.0002665728	6876
bin	0.0002674272	6943
bin	0.0002682816	6980
bin	0.000269136	6882
bin	0.0002699904	6874
bin	0.0002708448	6897
bin	0.0002716992	6816
bin	0.0002725536	6827
bin	0.000273408	6906
bin	0.0002742624	6847
bin	0.0002751168	7008
bin	0.0002759712	6637
bin	0.0002768256	6727
bin	0.00027768	6898
bin	0.0002785344	6971
bin	0.0002793888	6828
bin	0.0002802432	6810
bin	0.0002810976	6790
bin	0.000281952	6745
bin	0.0002828064	6827
bin	0.0002836608	6862
bin	0.0002845152	6897
bin	0.0002853696	6790
bin	0.000286224	6920
bin	0.0002870784	6818
bin	0.0002879328	6765
bin	0.0002887872	6740
bin	0.0002896416	6846
bin	0.000290496	6637
bin	0.0002913504	6712
bin	0.0002922048	6707
bin	0.0002930592	6599
bin	0.0002939136	6760
bin	0.000294768	6649
bin	0.0002956224	6786
bin	0.0002964768	6645
bin	0.0002973312	6652
bin	0.0002981856	6755
bin	0.00029904	6781
bin	0.0002998944	6623
bin	0.0003007488	6544
bin	0.0003016032	6659
bin	0.0003024576	6607
bin	0.000303312	6688
bin	0.0003041664	6561
bin	0.0003050208	6636
bin	0.0003058752	6614
bin	0.0003067296	6460
bin	0.000307584	6652
bin	0.0003084384	6532
bin	0.0003092928	6656
bin	0.0003101472	6547
bin	0.0003110016	6571
bin	0.000311856	6472
bin	0.0003127104	6467
bin	0.0003135648	6630
bin	0.0003144192	6318
bin	0.0003152736	6425
bin	0.000316128	6352
bin	0.0003169824	6386
bin	0.0003178368	6494
bin	0.0003186912	6584
bin	0.0003195456	6474
bin	0.0003204	6400
bin	0.0003212544	6390
bin	0.0003221088	6473
bin	0.0003229632	6275
bin	0.0003238176	6153
bin	0.000324672	6394
bin	0.0003255264	6507
bin	0.0003263808	6459
bin	0.0003272352	6396
bin	0.0003280896	6497
bin	0.000328944	6450
bin	0.0003297984	6416
bin	0.0003306528	6333
bin	0.0003315072	6358
bin	0.0003323616	6377
bin	0.000333216	6458
bin	0.0003340704	6376
bin	0.0003349248	6537
bin	0.0003357792	6361
bin	0.0003366336	6261
bin	0.000337488	6377
bin	0.0003383424	6375
bin	0.0003391968	6328
bin	0.0003400512	6307
bin	0.0003409056	6428
bin	0.00034176	6336
bin	0.0003426144	6316
bin	0.0003434688	6248
bin	0.0003443232	6349
bin	0.0003451776	6402
bin	0.000346032	6463
bin	0.0003468864	6266
bin	0.0003477408	6439
bin	0.0003485952	6329
bin	0.0003494496	6307
bin	0.000350304	6480
bin	0.0003511584	6436
bin	0.0003520128	6322
bin	0.0003528672	6301
bin	0.0003537216	6294
bin	0.000354576	6436
bin	0.0003554304	6201
bin	0.0003562848	6336
bin	0.0003571392	6278
bin	0.0003579936	6279
bin	0.000358848	6251
bin	0.0003597024	6332
bin	0.0003605568	6318
bin	0.0003614112	6282
bin	0.0003622656	6400
bin	0.00036312	6160
bin	0.0003639744	6315
bin	0.0003648288	6278
bin	0.0003656832	6253
bin	0.0003665376	6341
bin	0.000367392	6332
bin	0.0003682464	6416
bin	0.0003691008	6239
bin	0.0003699552	6211
bin	0.0003708096	6293
bin	0.000371664	6334
bin	0.0003725184	6201
bin	0.0003733728	6113
bin	0.0003742272	6171
bin	0.0003750816	6218
bin	0.000375936	6390
bin	0.0003767904	6326
bin	0.0003776448	6340
bin	0.0003784992	6350
bin	0.0003793536	6394
bin	0.000380208	6287
bin	0.0003810624	6259
bin	0.0003819168	6226
bin	0.0003827712	6262
bin	0.0003836256	6174
bin	0.00038448	6266
bin	0.0003853344	6312
bin	0.0003861888	6287
bin	0.0003870432	6172
bin	0.0003878976	6175
bin	0.000388752	6177
bin	0.0003896064	6235
bin	0.0003904608	6439
bin	0.0003913152	6388
bin	0.0003921696	6295
bin	0.000393024	6289
bin	0.0003938784	6293
bin	0.0003947328	6450
bin	0.0003955872	6332
bin	0.0003964416	6436
bin	0.000397296	6288
bin	0.0003981504	6384
bin	0.0003990048	6451
bin	0.0003998592	6374
bin	0.0004007136	6430
bin	0.000401568	6481
bin	0.0004024224	6496
bin	0.0004032768	6352
bin	0.0004041312	6423
bin	0.0004049856	6381
bin	0.00040584	6257
bin	0.0004066944	6428
bin	0.0004075488	6350
bin	0.0004084032	6463
bin	0.0004092576	6551
bin	0.000410112	6520
bin	0.0004109664	6492
bin	0.0004118208	6555
bin	0.0004126752	6584
bin	0.0004135296	6599
bin	0.000414384	6540
bin	0.0004152384	6655
bin	0.0004160928	6608
bin	0.0004169472	6474
bin	0.0004178016	6495
bin	0.000418656	6576
bin	0.0004195104	6464
bin	0.0004203648	6528
bin	0.0004212192	6428
bin	0.0004220736	6590
bin	0.000422928	6528
bin	0.0004237824	6463
bin	0.0004246368	6387
bin	0.0004254912	6433
bin	0.0004263456	6500
bin	0.0004272	943526
