version 2
run Uniform-13-20120709-15:47:44-24389
attr alg 1
attr buf 8
attr configname Uniform
attr datetime 20120709-15:47:44
attr delta 0.8
attr experiment Uniform
attr ext true
attr inifile altro.ini
attr iterationvars "$buf=8, $ext=true, $ofedge=1, $delta=0.8, $alg=1"
attr iterationvars2 "$buf=8, $ext=true, $ofedge=1, $delta=0.8, $alg=1, $repetition=0"
attr measurement "$buf=8, $ext=true, $ofedge=1, $delta=0.8, $alg=1"
attr network Torus3d_bub
attr ofedge 1
attr processid 24389
attr repetition 0
attr replication #0
attr resultdir altro-results
attr runnumber 13
attr seedset 13

scalar . 	alg 	1
scalar . 	buf 	8
scalar . 	delta 	0.8
scalar . 	ofedge 	1
scalar Torus3d_bub.timer 	#endTime 	0.001933433663672
scalar Torus3d_bub.timer 	#totalHops 	84126658
scalar Torus3d_bub.timer 	#totalPacks 	6291456
scalar Torus3d_bub.timer 	#totalDerouted 	2148199
scalar Torus3d_bub.timer 	#totalOutFlanked 	2148199
scalar Torus3d_bub.timer 	#totalCQRed 	0
scalar Torus3d_bub.timer 	#LB 	0.000786432
scalar Torus3d_bub.timer 	#ratio 	0.40675406391052
statistic Torus3d_bub.timer 	"Hop Times"
field count 6289536
field mean 2.7283107971864e-05
field stddev 3.399487310167e-05
field sum 171.59808978093
field sqrsum 0.011950239121739
field min 4.10428543e-07
field max 0.001181106663832
bin	-INF	0
bin	0	0
bin	7.12e-08	0
bin	1.424e-07	0
bin	2.136e-07	0
bin	2.848e-07	0
bin	3.56e-07	22
bin	4.272e-07	1274
bin	4.984e-07	3525
bin	5.696e-07	6239
bin	6.408e-07	9722
bin	7.12e-07	13295
bin	7.832e-07	16419
bin	8.544e-07	19668
bin	9.256e-07	22210
bin	9.968e-07	25147
bin	1.068e-06	28083
bin	1.1392e-06	31294
bin	1.2104e-06	34937
bin	1.2816e-06	39262
bin	1.3528e-06	44498
bin	1.424e-06	50105
bin	1.4952e-06	56153
bin	1.5664e-06	61925
bin	1.6376e-06	66371
bin	1.7088e-06	70594
bin	1.78e-06	73065
bin	1.8512e-06	74533
bin	1.9224e-06	74638
bin	1.9936e-06	73749
bin	2.0648e-06	71667
bin	2.136e-06	68965
bin	2.2072e-06	65850
bin	2.2784e-06	62807
bin	2.3496e-06	59134
bin	2.4208e-06	55886
bin	2.492e-06	51947
bin	2.5632e-06	48967
bin	2.6344e-06	45624
bin	2.7056e-06	43048
bin	2.7768e-06	40283
bin	2.848e-06	37977
bin	2.9192e-06	35622
bin	2.9904e-06	33567
bin	3.0616e-06	31690
bin	3.1328e-06	30034
bin	3.204e-06	28827
bin	3.2752e-06	27229
bin	3.3464e-06	25907
bin	3.4176e-06	24573
bin	3.4888e-06	23368
bin	3.56e-06	22410
bin	3.6312e-06	21473
bin	3.7024e-06	20542
bin	3.7736e-06	19787
bin	3.8448e-06	18920
bin	3.916e-06	18099
bin	3.9872e-06	17533
bin	4.0584e-06	16872
bin	4.1296e-06	16461
bin	4.2008e-06	15552
bin	4.272e-06	15205
bin	4.3432e-06	14842
bin	4.4144e-06	14306
bin	4.4856e-06	13949
bin	4.5568e-06	13500
bin	4.628e-06	13243
bin	4.6992e-06	13047
bin	4.7704e-06	12600
bin	4.8416e-06	12342
bin	4.9128e-06	11973
bin	4.984e-06	11728
bin	5.0552e-06	11604
bin	5.1264e-06	11397
bin	5.1976e-06	11095
bin	5.2688e-06	10909
bin	5.34e-06	10578
bin	5.4112e-06	10361
bin	5.4824e-06	10150
bin	5.5536e-06	9864
bin	5.6248e-06	9991
bin	5.696e-06	9750
bin	5.7672e-06	9692
bin	5.8384e-06	9608
bin	5.9096e-06	9347
bin	5.9808e-06	9238
bin	6.052e-06	9067
bin	6.1232e-06	8867
bin	6.1944e-06	8814
bin	6.2656e-06	8822
bin	6.3368e-06	8673
bin	6.408e-06	8490
bin	6.4792e-06	8505
bin	6.5504e-06	8343
bin	6.6216e-06	8285
bin	6.6928e-06	8145
bin	6.764e-06	8071
bin	6.8352e-06	8038
bin	6.9064e-06	8010
bin	6.9776e-06	7944
bin	7.0488e-06	7684
bin	7.12e-06	7675
bin	7.1912e-06	7616
bin	7.2624e-06	7705
bin	7.3336e-06	7521
bin	7.4048e-06	7406
bin	7.476e-06	7432
bin	7.5472e-06	7385
bin	7.6184e-06	7383
bin	7.6896e-06	7197
bin	7.7608e-06	7292
bin	7.832e-06	7266
bin	7.9032e-06	7047
bin	7.9744e-06	7214
bin	8.0456e-06	7205
bin	8.1168e-06	6930
bin	8.188e-06	7019
bin	8.2592e-06	6878
bin	8.3304e-06	6906
bin	8.4016e-06	6682
bin	8.4728e-06	6853
bin	8.544e-06	6857
bin	8.6152e-06	6775
bin	8.6864e-06	6600
bin	8.7576e-06	6619
bin	8.8288e-06	6581
bin	8.9e-06	6576
bin	8.9712e-06	6486
bin	9.0424e-06	6451
bin	9.1136e-06	6357
bin	9.1848e-06	6410
bin	9.256e-06	6506
bin	9.3272e-06	6579
bin	9.3984e-06	6407
bin	9.4696e-06	6473
bin	9.5408e-06	6311
bin	9.612e-06	6116
bin	9.6832e-06	6145
bin	9.7544e-06	6150
bin	9.8256e-06	6145
bin	9.8968e-06	6294
bin	9.968e-06	6230
bin	1.00392e-05	6139
bin	1.01104e-05	6179
bin	1.01816e-05	6211
bin	1.02528e-05	6077
bin	1.0324e-05	6025
bin	1.03952e-05	6099
bin	1.04664e-05	6111
bin	1.05376e-05	6024
bin	1.06088e-05	6138
bin	1.068e-05	5996
bin	1.07512e-05	5996
bin	1.08224e-05	6003
bin	1.08936e-05	5948
bin	1.09648e-05	5864
bin	1.1036e-05	5754
bin	1.11072e-05	6096
bin	1.11784e-05	5901
bin	1.12496e-05	5927
bin	1.13208e-05	5772
bin	1.1392e-05	5766
bin	1.14632e-05	5811
bin	1.15344e-05	5731
bin	1.16056e-05	5816
bin	1.16768e-05	5804
bin	1.1748e-05	5822
bin	1.18192e-05	5665
bin	1.18904e-05	5694
bin	1.19616e-05	5807
bin	1.20328e-05	5610
bin	1.2104e-05	5680
bin	1.21752e-05	5667
bin	1.22464e-05	5609
bin	1.23176e-05	5636
bin	1.23888e-05	5594
bin	1.246e-05	5566
bin	1.25312e-05	5617
bin	1.26024e-05	5573
bin	1.26736e-05	5572
bin	1.27448e-05	5814
bin	1.2816e-05	5773
bin	1.28872e-05	5576
bin	1.29584e-05	5548
bin	1.30296e-05	5503
bin	1.31008e-05	5507
bin	1.3172e-05	5475
bin	1.32432e-05	5409
bin	1.33144e-05	5476
bin	1.33856e-05	5512
bin	1.34568e-05	5395
bin	1.3528e-05	5377
bin	1.35992e-05	5401
bin	1.36704e-05	5369
bin	1.37416e-05	5314
bin	1.38128e-05	5323
bin	1.3884e-05	5347
bin	1.39552e-05	5292
bin	1.40264e-05	5468
bin	1.40976e-05	5357
bin	1.41688e-05	5424
bin	1.424e-05	5452
bin	1.43112e-05	5419
bin	1.43824e-05	5316
bin	1.44536e-05	5328
bin	1.45248e-05	5386
bin	1.4596e-05	5274
bin	1.46672e-05	5160
bin	1.47384e-05	5279
bin	1.48096e-05	5276
bin	1.48808e-05	5389
bin	1.4952e-05	5217
bin	1.50232e-05	5387
bin	1.50944e-05	5142
bin	1.51656e-05	5248
bin	1.52368e-05	5464
bin	1.5308e-05	5254
bin	1.53792e-05	5132
bin	1.54504e-05	5298
bin	1.55216e-05	5210
bin	1.55928e-05	5300
bin	1.5664e-05	5172
bin	1.57352e-05	5145
bin	1.58064e-05	5203
bin	1.58776e-05	5229
bin	1.59488e-05	5103
bin	1.602e-05	5108
bin	1.60912e-05	5137
bin	1.61624e-05	5047
bin	1.62336e-05	5043
bin	1.63048e-05	5262
bin	1.6376e-05	5129
bin	1.64472e-05	5103
bin	1.65184e-05	5115
bin	1.65896e-05	4985
bin	1.66608e-05	4990
bin	1.6732e-05	4996
bin	1.68032e-05	4936
bin	1.68744e-05	5106
bin	1.69456e-05	5045
bin	1.70168e-05	5047
bin	1.7088e-05	5031
bin	1.71592e-05	4929
bin	1.72304e-05	4933
bin	1.73016e-05	4766
bin	1.73728e-05	4878
bin	1.7444e-05	4901
bin	1.75152e-05	4884
bin	1.75864e-05	5042
bin	1.76576e-05	5028
bin	1.77288e-05	4930
bin	1.78e-05	4945
bin	1.78712e-05	4994
bin	1.79424e-05	4976
bin	1.80136e-05	5004
bin	1.80848e-05	4817
bin	1.8156e-05	4796
bin	1.82272e-05	4725
bin	1.82984e-05	4733
bin	1.83696e-05	4760
bin	1.84408e-05	4775
bin	1.8512e-05	4741
bin	1.85832e-05	4776
bin	1.86544e-05	4806
bin	1.87256e-05	4673
bin	1.87968e-05	4774
bin	1.8868e-05	4708
bin	1.89392e-05	4676
bin	1.90104e-05	4756
bin	1.90816e-05	4802
bin	1.91528e-05	4907
bin	1.9224e-05	4792
bin	1.92952e-05	4794
bin	1.93664e-05	4655
bin	1.94376e-05	4720
bin	1.95088e-05	4732
bin	1.958e-05	4758
bin	1.96512e-05	4809
bin	1.97224e-05	4766
bin	1.97936e-05	4734
bin	1.98648e-05	4562
bin	1.9936e-05	4615
bin	2.00072e-05	4605
bin	2.00784e-05	4781
bin	2.01496e-05	4631
bin	2.02208e-05	4611
bin	2.0292e-05	4597
bin	2.03632e-05	4557
bin	2.04344e-05	4496
bin	2.05056e-05	4736
bin	2.05768e-05	4586
bin	2.0648e-05	4618
bin	2.07192e-05	4574
bin	2.07904e-05	4675
bin	2.08616e-05	4526
bin	2.09328e-05	4582
bin	2.1004e-05	4490
bin	2.10752e-05	4506
bin	2.11464e-05	4552
bin	2.12176e-05	4467
bin	2.12888e-05	4459
bin	2.136e-05	4503
bin	2.14312e-05	4638
bin	2.15024e-05	4528
bin	2.15736e-05	4377
bin	2.16448e-05	4476
bin	2.1716e-05	4444
bin	2.17872e-05	4478
bin	2.18584e-05	4434
bin	2.19296e-05	4465
bin	2.20008e-05	4454
bin	2.2072e-05	4467
bin	2.21432e-05	4503
bin	2.22144e-05	4554
bin	2.22856e-05	4414
bin	2.23568e-05	4340
bin	2.2428e-05	4305
bin	2.24992e-05	4297
bin	2.25704e-05	4358
bin	2.26416e-05	4467
bin	2.27128e-05	4377
bin	2.2784e-05	4473
bin	2.28552e-05	4468
bin	2.29264e-05	4543
bin	2.29976e-05	4553
bin	2.30688e-05	4491
bin	2.314e-05	4471
bin	2.32112e-05	4412
bin	2.32824e-05	4311
bin	2.33536e-05	4342
bin	2.34248e-05	4338
bin	2.3496e-05	4396
bin	2.35672e-05	4353
bin	2.36384e-05	4354
bin	2.37096e-05	4179
bin	2.37808e-05	4273
bin	2.3852e-05	4196
bin	2.39232e-05	4354
bin	2.39944e-05	4217
bin	2.40656e-05	4234
bin	2.41368e-05	4309
bin	2.4208e-05	4313
bin	2.42792e-05	4277
bin	2.43504e-05	4292
bin	2.44216e-05	4281
bin	2.44928e-05	4410
bin	2.4564e-05	4454
bin	2.46352e-05	4337
bin	2.47064e-05	4294
bin	2.47776e-05	4360
bin	2.48488e-05	4263
bin	2.492e-05	4339
bin	2.49912e-05	4227
bin	2.50624e-05	4279
bin	2.51336e-05	4173
bin	2.52048e-05	4183
bin	2.5276e-05	4209
bin	2.53472e-05	4205
bin	2.54184e-05	4306
bin	2.54896e-05	4091
bin	2.55608e-05	4055
bin	2.5632e-05	4210
bin	2.57032e-05	4149
bin	2.57744e-05	4165
bin	2.58456e-05	4051
bin	2.59168e-05	3968
bin	2.5988e-05	3967
bin	2.60592e-05	4086
bin	2.61304e-05	4124
bin	2.62016e-05	4032
bin	2.62728e-05	4229
bin	2.6344e-05	4241
bin	2.64152e-05	4300
bin	2.64864e-05	4112
bin	2.65576e-05	4201
bin	2.66288e-05	4178
bin	2.67e-05	4203
bin	2.67712e-05	4092
bin	2.68424e-05	4101
bin	2.69136e-05	4114
bin	2.69848e-05	3918
bin	2.7056e-05	4118
bin	2.71272e-05	4138
bin	2.71984e-05	4085
bin	2.72696e-05	4089
bin	2.73408e-05	4257
bin	2.7412e-05	4120
bin	2.74832e-05	4118
bin	2.75544e-05	4120
bin	2.76256e-05	4078
bin	2.76968e-05	4095
bin	2.7768e-05	4107
bin	2.78392e-05	4189
bin	2.79104e-05	4147
bin	2.79816e-05	4122
bin	2.80528e-05	4081
bin	2.8124e-05	4206
bin	2.81952e-05	3945
bin	2.82664e-05	4220
bin	2.83376e-05	4206
bin	2.84088e-05	4201
bin	2.848e-05	4096
bin	2.85512e-05	4061
bin	2.86224e-05	4171
bin	2.86936e-05	4102
bin	2.87648e-05	4094
bin	2.8836e-05	4201
bin	2.89072e-05	4214
bin	2.89784e-05	4233
bin	2.90496e-05	4185
bin	2.91208e-05	4205
bin	2.9192e-05	4129
bin	2.92632e-05	4074
bin	2.93344e-05	4080
bin	2.94056e-05	4118
bin	2.94768e-05	4199
bin	2.9548e-05	4121
bin	2.96192e-05	4160
bin	2.96904e-05	4168
bin	2.97616e-05	4124
bin	2.98328e-05	4168
bin	2.9904e-05	4111
bin	2.99752e-05	4244
bin	3.00464e-05	4249
bin	3.01176e-05	4329
bin	3.01888e-05	4280
bin	3.026e-05	4256
bin	3.03312e-05	4251
bin	3.04024e-05	4208
bin	3.04736e-05	4219
bin	3.05448e-05	4211
bin	3.0616e-05	4262
bin	3.06872e-05	4304
bin	3.07584e-05	4231
bin	3.08296e-05	4279
bin	3.09008e-05	4223
bin	3.0972e-05	4085
bin	3.10432e-05	4082
bin	3.11144e-05	4150
bin	3.11856e-05	4120
bin	3.12568e-05	4158
bin	3.1328e-05	4085
bin	3.13992e-05	4156
bin	3.14704e-05	4351
bin	3.15416e-05	4167
bin	3.16128e-05	4091
bin	3.1684e-05	4106
bin	3.17552e-05	4162
bin	3.18264e-05	4027
bin	3.18976e-05	4150
bin	3.19688e-05	4197
bin	3.204e-05	4100
bin	3.21112e-05	4179
bin	3.21824e-05	4098
bin	3.22536e-05	4131
bin	3.23248e-05	4134
bin	3.2396e-05	4125
bin	3.24672e-05	4211
bin	3.25384e-05	4212
bin	3.26096e-05	4071
bin	3.26808e-05	4107
bin	3.2752e-05	4047
bin	3.28232e-05	4134
bin	3.28944e-05	4021
bin	3.29656e-05	4104
bin	3.30368e-05	4174
bin	3.3108e-05	4170
bin	3.31792e-05	4172
bin	3.32504e-05	4055
bin	3.33216e-05	4094
bin	3.33928e-05	4072
bin	3.3464e-05	4153
bin	3.35352e-05	4070
bin	3.36064e-05	4126
bin	3.36776e-05	4180
bin	3.37488e-05	4063
bin	3.382e-05	4058
bin	3.38912e-05	4095
bin	3.39624e-05	4068
bin	3.40336e-05	4093
bin	3.41048e-05	4038
bin	3.4176e-05	4070
bin	3.42472e-05	4066
bin	3.43184e-05	4040
bin	3.43896e-05	4029
bin	3.44608e-05	4140
bin	3.4532e-05	4092
bin	3.46032e-05	4059
bin	3.46744e-05	4134
bin	3.47456e-05	4155
bin	3.48168e-05	4161
bin	3.4888e-05	4217
bin	3.49592e-05	4088
bin	3.50304e-05	4248
bin	3.51016e-05	4176
bin	3.51728e-05	4185
bin	3.5244e-05	4249
bin	3.53152e-05	4285
bin	3.53864e-05	4203
bin	3.54576e-05	4062
bin	3.55288e-05	4172
bin	3.56e-05	1925776
statistic Torus3d_bub.timer 	"Life Times"
field count 6291456
field mean 0.00032771027917726
field stddev 0.00031840013696112
field sum 2061.7748021914
field sqrsum 1.3134839929525
field min 3.77332469e-07
field max 0.001583464333189
bin	-INF	0
bin	0	77
bin	8.544e-07	594
bin	1.7088e-06	1996
bin	2.5632e-06	3808
bin	3.4176e-06	5861
bin	4.272e-06	8048
bin	5.1264e-06	10284
bin	5.9808e-06	12778
bin	6.8352e-06	15227
bin	7.6896e-06	17993
bin	8.544e-06	20677
bin	9.3984e-06	23445
bin	1.02528e-05	25601
bin	1.11072e-05	27022
bin	1.19616e-05	28753
bin	1.2816e-05	30742
bin	1.36704e-05	32833
bin	1.45248e-05	35124
bin	1.53792e-05	36798
bin	1.62336e-05	39132
bin	1.7088e-05	41387
bin	1.79424e-05	44058
bin	1.87968e-05	46397
bin	1.96512e-05	48359
bin	2.05056e-05	51012
bin	2.136e-05	53356
bin	2.22144e-05	56139
bin	2.30688e-05	57713
bin	2.39232e-05	59901
bin	2.47776e-05	60995
bin	2.5632e-05	62022
bin	2.64864e-05	62516
bin	2.73408e-05	62566
bin	2.81952e-05	62069
bin	2.90496e-05	61673
bin	2.9904e-05	60521
bin	3.07584e-05	58334
bin	3.16128e-05	55250
bin	3.24672e-05	50803
bin	3.33216e-05	46636
bin	3.4176e-05	43650
bin	3.50304e-05	40046
bin	3.58848e-05	36931
bin	3.67392e-05	33867
bin	3.75936e-05	30947
bin	3.8448e-05	28877
bin	3.93024e-05	26170
bin	4.01568e-05	24242
bin	4.10112e-05	22192
bin	4.18656e-05	20543
bin	4.272e-05	18915
bin	4.35744e-05	18043
bin	4.44288e-05	17020
bin	4.52832e-05	16519
bin	4.61376e-05	15750
bin	4.6992e-05	15571
bin	4.78464e-05	15029
bin	4.87008e-05	14698
bin	4.95552e-05	14197
bin	5.04096e-05	13955
bin	5.1264e-05	13659
bin	5.21184e-05	13636
bin	5.29728e-05	13243
bin	5.38272e-05	13253
bin	5.46816e-05	13100
bin	5.5536e-05	12933
bin	5.63904e-05	12814
bin	5.72448e-05	12876
bin	5.80992e-05	12788
bin	5.89536e-05	12804
bin	5.9808e-05	12531
bin	6.06624e-05	12748
bin	6.15168e-05	12741
bin	6.23712e-05	12388
bin	6.32256e-05	12084
bin	6.408e-05	11711
bin	6.49344e-05	11213
bin	6.57888e-05	10817
bin	6.66432e-05	10471
bin	6.74976e-05	10057
bin	6.8352e-05	9750
bin	6.92064e-05	9297
bin	7.00608e-05	9042
bin	7.09152e-05	8772
bin	7.17696e-05	8420
bin	7.2624e-05	8073
bin	7.34784e-05	7893
bin	7.43328e-05	7668
bin	7.51872e-05	7583
bin	7.60416e-05	7556
bin	7.6896e-05	7425
bin	7.77504e-05	7273
bin	7.86048e-05	7357
bin	7.94592e-05	7193
bin	8.03136e-05	7230
bin	8.1168e-05	7154
bin	8.20224e-05	7034
bin	8.28768e-05	7130
bin	8.37312e-05	7012
bin	8.45856e-05	7187
bin	8.544e-05	7005
bin	8.62944e-05	7262
bin	8.71488e-05	7037
bin	8.80032e-05	7089
bin	8.88576e-05	7049
bin	8.9712e-05	7006
bin	9.05664e-05	7012
bin	9.14208e-05	6917
bin	9.22752e-05	7115
bin	9.31296e-05	6963
bin	9.3984e-05	7174
bin	9.48384e-05	6889
bin	9.56928e-05	6868
bin	9.65472e-05	6593
bin	9.74016e-05	6490
bin	9.8256e-05	6302
bin	9.91104e-05	6183
bin	9.99648e-05	6255
bin	0.0001008192	6310
bin	0.0001016736	6215
bin	0.000102528	6005
bin	0.0001033824	5804
bin	0.0001042368	5973
bin	0.0001050912	5893
bin	0.0001059456	5708
bin	0.0001068	5658
bin	0.0001076544	5725
bin	0.0001085088	5647
bin	0.0001093632	5645
bin	0.0001102176	5649
bin	0.000111072	5577
bin	0.0001119264	5578
bin	0.0001127808	5683
bin	0.0001136352	5675
bin	0.0001144896	5547
bin	0.000115344	5636
bin	0.0001161984	5720
bin	0.0001170528	5610
bin	0.0001179072	5685
bin	0.0001187616	5644
bin	0.000119616	5841
bin	0.0001204704	5849
bin	0.0001213248	5817
bin	0.0001221792	5726
bin	0.0001230336	5823
bin	0.000123888	5812
bin	0.0001247424	5730
bin	0.0001255968	5714
bin	0.0001264512	5515
bin	0.0001273056	5727
bin	0.00012816	5550
bin	0.0001290144	5396
bin	0.0001298688	5529
bin	0.0001307232	5518
bin	0.0001315776	5446
bin	0.000132432	5406
bin	0.0001332864	5349
bin	0.0001341408	5395
bin	0.0001349952	5321
bin	0.0001358496	5137
bin	0.000136704	5097
bin	0.0001375584	5207
bin	0.0001384128	5172
bin	0.0001392672	5340
bin	0.0001401216	5196
bin	0.000140976	5104
bin	0.0001418304	5103
bin	0.0001426848	5161
bin	0.0001435392	5080
bin	0.0001443936	5056
bin	0.000145248	5258
bin	0.0001461024	5156
bin	0.0001469568	5164
bin	0.0001478112	5120
bin	0.0001486656	5151
bin	0.00014952	5194
bin	0.0001503744	5052
bin	0.0001512288	5059
bin	0.0001520832	5196
bin	0.0001529376	5198
bin	0.000153792	5171
bin	0.0001546464	5180
bin	0.0001555008	5129
bin	0.0001563552	5030
bin	0.0001572096	5071
bin	0.000158064	5018
bin	0.0001589184	5044
bin	0.0001597728	5040
bin	0.0001606272	4967
bin	0.0001614816	4996
bin	0.000162336	5023
bin	0.0001631904	4941
bin	0.0001640448	4900
bin	0.0001648992	4888
bin	0.0001657536	4834
bin	0.000166608	4808
bin	0.0001674624	4957
bin	0.0001683168	4785
bin	0.0001691712	4802
bin	0.0001700256	4875
bin	0.00017088	4977
bin	0.0001717344	4814
bin	0.0001725888	4882
bin	0.0001734432	4838
bin	0.0001742976	4948
bin	0.000175152	4933
bin	0.0001760064	4824
bin	0.0001768608	4840
bin	0.0001777152	4898
bin	0.0001785696	4912
bin	0.000179424	4937
bin	0.0001802784	4858
bin	0.0001811328	4913
bin	0.0001819872	4841
bin	0.0001828416	4960
bin	0.000183696	4889
bin	0.0001845504	4733
bin	0.0001854048	4776
bin	0.0001862592	4697
bin	0.0001871136	4785
bin	0.000187968	4748
bin	0.0001888224	4785
bin	0.0001896768	4625
bin	0.0001905312	4702
bin	0.0001913856	4506
bin	0.00019224	4620
bin	0.0001930944	4564
bin	0.0001939488	4591
bin	0.0001948032	4419
bin	0.0001956576	4582
bin	0.000196512	4636
bin	0.0001973664	4712
bin	0.0001982208	4564
bin	0.0001990752	4706
bin	0.0001999296	4559
bin	0.000200784	4594
bin	0.0002016384	4521
bin	0.0002024928	4627
bin	0.0002033472	4601
bin	0.0002042016	4558
bin	0.000205056	4650
bin	0.0002059104	4738
bin	0.0002067648	4703
bin	0.0002076192	4414
bin	0.0002084736	4456
bin	0.000209328	4544
bin	0.0002101824	4619
bin	0.0002110368	4592
bin	0.0002118912	4679
bin	0.0002127456	4641
bin	0.0002136	4590
bin	0.0002144544	4485
bin	0.0002153088	4571
bin	0.0002161632	4696
bin	0.0002170176	4525
bin	0.000217872	4539
bin	0.0002187264	4517
bin	0.0002195808	4522
bin	0.0002204352	4605
bin	0.0002212896	4412
bin	0.000222144	4406
bin	0.0002229984	4386
bin	0.0002238528	4305
bin	0.0002247072	4351
bin	0.0002255616	4411
bin	0.000226416	4322
bin	0.0002272704	4481
bin	0.0002281248	4423
bin	0.0002289792	4527
bin	0.0002298336	4487
bin	0.000230688	4495
bin	0.0002315424	4499
bin	0.0002323968	4419
bin	0.0002332512	4388
bin	0.0002341056	4306
bin	0.00023496	4366
bin	0.0002358144	4328
bin	0.0002366688	4333
bin	0.0002375232	4466
bin	0.0002383776	4451
bin	0.000239232	4342
bin	0.0002400864	4331
bin	0.0002409408	4415
bin	0.0002417952	4482
bin	0.0002426496	4424
bin	0.000243504	4401
bin	0.0002443584	4421
bin	0.0002452128	4274
bin	0.0002460672	4336
bin	0.0002469216	4449
bin	0.000247776	4433
bin	0.0002486304	4361
bin	0.0002494848	4239
bin	0.0002503392	4378
bin	0.0002511936	4198
bin	0.000252048	4091
bin	0.0002529024	4050
bin	0.0002537568	4099
bin	0.0002546112	4126
bin	0.0002554656	4205
bin	0.00025632	4153
bin	0.0002571744	4085
bin	0.0002580288	4056
bin	0.0002588832	4155
bin	0.0002597376	4159
bin	0.000260592	4177
bin	0.0002614464	4171
bin	0.0002623008	4114
bin	0.0002631552	4147
bin	0.0002640096	4186
bin	0.000264864	4123
bin	0.0002657184	4048
bin	0.0002665728	4163
bin	0.0002674272	4098
bin	0.0002682816	4060
bin	0.000269136	4151
bin	0.0002699904	4086
bin	0.0002708448	4161
bin	0.0002716992	3991
bin	0.0002725536	4043
bin	0.000273408	4024
bin	0.0002742624	3952
bin	0.0002751168	4009
bin	0.0002759712	3997
bin	0.0002768256	3969
bin	0.00027768	4050
bin	0.0002785344	3997
bin	0.0002793888	3977
bin	0.0002802432	4013
bin	0.0002810976	3976
bin	0.000281952	3944
bin	0.0002828064	4106
bin	0.0002836608	3972
bin	0.0002845152	3971
bin	0.0002853696	3950
bin	0.000286224	4024
bin	0.0002870784	4086
bin	0.0002879328	4046
bin	0.0002887872	3956
bin	0.0002896416	4075
bin	0.000290496	4119
bin	0.0002913504	4013
bin	0.0002922048	3886
bin	0.0002930592	3860
bin	0.0002939136	3929
bin	0.000294768	3992
bin	0.0002956224	3900
bin	0.0002964768	3792
bin	0.0002973312	3889
bin	0.0002981856	3852
bin	0.00029904	3875
bin	0.0002998944	3861
bin	0.0003007488	3904
bin	0.0003016032	3887
bin	0.0003024576	3871
bin	0.000303312	3800
bin	0.0003041664	3922
bin	0.0003050208	3890
bin	0.0003058752	3902
bin	0.0003067296	3721
bin	0.000307584	3732
bin	0.0003084384	3748
bin	0.0003092928	3728
bin	0.0003101472	3759
bin	0.0003110016	3743
bin	0.000311856	3743
bin	0.0003127104	3682
bin	0.0003135648	3734
bin	0.0003144192	3700
bin	0.0003152736	3691
bin	0.000316128	3699
bin	0.0003169824	3685
bin	0.0003178368	3720
bin	0.0003186912	3683
bin	0.0003195456	3742
bin	0.0003204	3791
bin	0.0003212544	3660
bin	0.0003221088	3736
bin	0.0003229632	3675
bin	0.0003238176	3735
bin	0.000324672	3724
bin	0.0003255264	3705
bin	0.0003263808	3746
bin	0.0003272352	3637
bin	0.0003280896	3656
bin	0.000328944	3606
bin	0.0003297984	3560
bin	0.0003306528	3611
bin	0.0003315072	3611
bin	0.0003323616	3566
bin	0.000333216	3644
bin	0.0003340704	3706
bin	0.0003349248	3606
bin	0.0003357792	3565
bin	0.0003366336	3559
bin	0.000337488	3736
bin	0.0003383424	3567
bin	0.0003391968	3601
bin	0.0003400512	3590
bin	0.0003409056	3625
bin	0.00034176	3660
bin	0.0003426144	3612
bin	0.0003434688	3537
bin	0.0003443232	3636
bin	0.0003451776	3597
bin	0.000346032	3583
bin	0.0003468864	3543
bin	0.0003477408	3607
bin	0.0003485952	3606
bin	0.0003494496	3613
bin	0.000350304	3658
bin	0.0003511584	3632
bin	0.0003520128	3520
bin	0.0003528672	3534
bin	0.0003537216	3531
bin	0.000354576	3615
bin	0.0003554304	3591
bin	0.0003562848	3595
bin	0.0003571392	3514
bin	0.0003579936	3593
bin	0.000358848	3509
bin	0.0003597024	3604
bin	0.0003605568	3444
bin	0.0003614112	3540
bin	0.0003622656	3620
bin	0.00036312	3614
bin	0.0003639744	3535
bin	0.0003648288	3572
bin	0.0003656832	3472
bin	0.0003665376	3625
bin	0.000367392	3713
bin	0.0003682464	3637
bin	0.0003691008	3634
bin	0.0003699552	3543
bin	0.0003708096	3575
bin	0.000371664	3458
bin	0.0003725184	3431
bin	0.0003733728	3498
bin	0.0003742272	3566
bin	0.0003750816	3502
bin	0.000375936	3442
bin	0.0003767904	3481
bin	0.0003776448	3393
bin	0.0003784992	3467
bin	0.0003793536	3429
bin	0.000380208	3465
bin	0.0003810624	3419
bin	0.0003819168	3293
bin	0.0003827712	3397
bin	0.0003836256	3411
bin	0.00038448	3363
bin	0.0003853344	3404
bin	0.0003861888	3363
bin	0.0003870432	3402
bin	0.0003878976	3378
bin	0.000388752	3344
bin	0.0003896064	3454
bin	0.0003904608	3407
bin	0.0003913152	3363
bin	0.0003921696	3276
bin	0.000393024	3298
bin	0.0003938784	3286
bin	0.0003947328	3315
bin	0.0003955872	3311
bin	0.0003964416	3422
bin	0.000397296	3286
bin	0.0003981504	3367
bin	0.0003990048	3382
bin	0.0003998592	3373
bin	0.0004007136	3363
bin	0.000401568	3303
bin	0.0004024224	3285
bin	0.0004032768	3337
bin	0.0004041312	3306
bin	0.0004049856	3208
bin	0.00040584	3318
bin	0.0004066944	3355
bin	0.0004075488	3306
bin	0.0004084032	3264
bin	0.0004092576	3259
bin	0.000410112	3284
bin	0.0004109664	3347
bin	0.0004118208	3383
bin	0.0004126752	3393
bin	0.0004135296	3427
bin	0.000414384	3349
bin	0.0004152384	3315
bin	0.0004160928	3445
bin	0.0004169472	3439
bin	0.0004178016	3366
bin	0.000418656	3321
bin	0.0004195104	3254
bin	0.0004203648	3324
bin	0.0004212192	3331
bin	0.0004220736	3310
bin	0.000422928	3242
bin	0.0004237824	3307
bin	0.0004246368	3349
bin	0.0004254912	3288
bin	0.0004263456	3261
bin	0.0004272	2191588
