version 2
run Uniform-79-20120709-19:04:42-24861
attr alg 3
attr buf 8
attr configname Uniform
attr datetime 20120709-19:04:42
attr delta 1
attr experiment Uniform
attr ext false
attr inifile altro.ini
attr iterationvars "$buf=8, $ext=false, $ofedge=2, $delta=1, $alg=3"
attr iterationvars2 "$buf=8, $ext=false, $ofedge=2, $delta=1, $alg=3, $repetition=0"
attr measurement "$buf=8, $ext=false, $ofedge=2, $delta=1, $alg=3"
attr network Torus3d_bub
attr ofedge 2
attr processid 24861
attr repetition 0
attr replication #0
attr resultdir altro-results
attr runnumber 79
attr seedset 79

scalar . 	alg 	3
scalar . 	buf 	8
scalar . 	delta 	1
scalar . 	ofedge 	2
scalar Torus3d_bub.timer 	#endTime 	0.001828689663839
scalar Torus3d_bub.timer 	#totalHops 	87535238
scalar Torus3d_bub.timer 	#totalPacks 	6291456
scalar Torus3d_bub.timer 	#totalDerouted 	2182967
scalar Torus3d_bub.timer 	#totalOutFlanked 	1355407
scalar Torus3d_bub.timer 	#totalCQRed 	827560
scalar Torus3d_bub.timer 	#LB 	0.000786432
scalar Torus3d_bub.timer 	#ratio 	0.43005219286307
statistic Torus3d_bub.timer 	"Hop Times"
field count 6290160
field mean 3.8064876439048e-05
field stddev 3.7076076421301e-05
field sum 239.43416318184
field sqrsum 0.017760707339039
field min 3.74222222e-07
field max 0.001036919664075
bin	-INF	0
bin	0	0
bin	7.12e-08	0
bin	1.424e-07	0
bin	2.136e-07	0
bin	2.848e-07	0
bin	3.56e-07	217
bin	4.272e-07	860
bin	4.984e-07	1692
bin	5.696e-07	2403
bin	6.408e-07	3643
bin	7.12e-07	4896
bin	7.832e-07	6086
bin	8.544e-07	7337
bin	9.256e-07	8695
bin	9.968e-07	9955
bin	1.068e-06	11443
bin	1.1392e-06	12947
bin	1.2104e-06	14895
bin	1.2816e-06	16897
bin	1.3528e-06	19214
bin	1.424e-06	21326
bin	1.4952e-06	23660
bin	1.5664e-06	25872
bin	1.6376e-06	27753
bin	1.7088e-06	28915
bin	1.78e-06	30019
bin	1.8512e-06	29888
bin	1.9224e-06	30053
bin	1.9936e-06	29289
bin	2.0648e-06	28246
bin	2.136e-06	27207
bin	2.2072e-06	26098
bin	2.2784e-06	24859
bin	2.3496e-06	23617
bin	2.4208e-06	22481
bin	2.492e-06	21251
bin	2.5632e-06	20187
bin	2.6344e-06	18843
bin	2.7056e-06	18001
bin	2.7768e-06	17136
bin	2.848e-06	16450
bin	2.9192e-06	15545
bin	2.9904e-06	14887
bin	3.0616e-06	14084
bin	3.1328e-06	13604
bin	3.204e-06	12977
bin	3.2752e-06	12476
bin	3.3464e-06	12139
bin	3.4176e-06	11494
bin	3.4888e-06	10961
bin	3.56e-06	10984
bin	3.6312e-06	10384
bin	3.7024e-06	10057
bin	3.7736e-06	9952
bin	3.8448e-06	9711
bin	3.916e-06	9412
bin	3.9872e-06	9161
bin	4.0584e-06	9222
bin	4.1296e-06	8892
bin	4.2008e-06	8649
bin	4.272e-06	8597
bin	4.3432e-06	8407
bin	4.4144e-06	8359
bin	4.4856e-06	7929
bin	4.5568e-06	8145
bin	4.628e-06	7919
bin	4.6992e-06	7856
bin	4.7704e-06	7657
bin	4.8416e-06	7441
bin	4.9128e-06	7485
bin	4.984e-06	7425
bin	5.0552e-06	7334
bin	5.1264e-06	7376
bin	5.1976e-06	7258
bin	5.2688e-06	7207
bin	5.34e-06	7121
bin	5.4112e-06	7002
bin	5.4824e-06	7089
bin	5.5536e-06	6980
bin	5.6248e-06	6912
bin	5.696e-06	6838
bin	5.7672e-06	6878
bin	5.8384e-06	6799
bin	5.9096e-06	6859
bin	5.9808e-06	6759
bin	6.052e-06	6583
bin	6.1232e-06	6452
bin	6.1944e-06	6745
bin	6.2656e-06	6549
bin	6.3368e-06	6511
bin	6.408e-06	6395
bin	6.4792e-06	6427
bin	6.5504e-06	6506
bin	6.6216e-06	6446
bin	6.6928e-06	6597
bin	6.764e-06	6404
bin	6.8352e-06	6335
bin	6.9064e-06	6397
bin	6.9776e-06	6212
bin	7.0488e-06	6226
bin	7.12e-06	6212
bin	7.1912e-06	6196
bin	7.2624e-06	6176
bin	7.3336e-06	6240
bin	7.4048e-06	6300
bin	7.476e-06	6273
bin	7.5472e-06	6230
bin	7.6184e-06	6056
bin	7.6896e-06	6338
bin	7.7608e-06	6250
bin	7.832e-06	6142
bin	7.9032e-06	6206
bin	7.9744e-06	6348
bin	8.0456e-06	6211
bin	8.1168e-06	6036
bin	8.188e-06	6156
bin	8.2592e-06	6251
bin	8.3304e-06	6077
bin	8.4016e-06	6092
bin	8.4728e-06	6048
bin	8.544e-06	6044
bin	8.6152e-06	5994
bin	8.6864e-06	6076
bin	8.7576e-06	6035
bin	8.8288e-06	6136
bin	8.9e-06	6219
bin	8.9712e-06	6073
bin	9.0424e-06	6042
bin	9.1136e-06	6105
bin	9.1848e-06	6023
bin	9.256e-06	6119
bin	9.3272e-06	6085
bin	9.3984e-06	6106
bin	9.4696e-06	6170
bin	9.5408e-06	6000
bin	9.612e-06	6039
bin	9.6832e-06	5909
bin	9.7544e-06	6051
bin	9.8256e-06	5831
bin	9.8968e-06	5964
bin	9.968e-06	6074
bin	1.00392e-05	5888
bin	1.01104e-05	5926
bin	1.01816e-05	6015
bin	1.02528e-05	6030
bin	1.0324e-05	5900
bin	1.03952e-05	5974
bin	1.04664e-05	6086
bin	1.05376e-05	6005
bin	1.06088e-05	5768
bin	1.068e-05	5968
bin	1.07512e-05	5872
bin	1.08224e-05	5916
bin	1.08936e-05	5994
bin	1.09648e-05	5852
bin	1.1036e-05	6036
bin	1.11072e-05	5965
bin	1.11784e-05	5865
bin	1.12496e-05	5915
bin	1.13208e-05	5856
bin	1.1392e-05	5996
bin	1.14632e-05	5994
bin	1.15344e-05	5930
bin	1.16056e-05	5947
bin	1.16768e-05	5813
bin	1.1748e-05	5872
bin	1.18192e-05	6011
bin	1.18904e-05	5920
bin	1.19616e-05	5941
bin	1.20328e-05	5979
bin	1.2104e-05	5942
bin	1.21752e-05	6037
bin	1.22464e-05	5977
bin	1.23176e-05	6001
bin	1.23888e-05	6037
bin	1.246e-05	6058
bin	1.25312e-05	5993
bin	1.26024e-05	5930
bin	1.26736e-05	5958
bin	1.27448e-05	5893
bin	1.2816e-05	5874
bin	1.28872e-05	5905
bin	1.29584e-05	5871
bin	1.30296e-05	5825
bin	1.31008e-05	5852
bin	1.3172e-05	5942
bin	1.32432e-05	5918
bin	1.33144e-05	5956
bin	1.33856e-05	5881
bin	1.34568e-05	5993
bin	1.3528e-05	5964
bin	1.35992e-05	5915
bin	1.36704e-05	5965
bin	1.37416e-05	5937
bin	1.38128e-05	5721
bin	1.3884e-05	5890
bin	1.39552e-05	5895
bin	1.40264e-05	5799
bin	1.40976e-05	5961
bin	1.41688e-05	5862
bin	1.424e-05	5806
bin	1.43112e-05	5806
bin	1.43824e-05	5909
bin	1.44536e-05	5876
bin	1.45248e-05	5714
bin	1.4596e-05	5725
bin	1.46672e-05	5809
bin	1.47384e-05	5650
bin	1.48096e-05	5791
bin	1.48808e-05	5771
bin	1.4952e-05	5785
bin	1.50232e-05	5707
bin	1.50944e-05	5735
bin	1.51656e-05	5663
bin	1.52368e-05	5833
bin	1.5308e-05	5681
bin	1.53792e-05	5727
bin	1.54504e-05	5782
bin	1.55216e-05	5881
bin	1.55928e-05	5799
bin	1.5664e-05	5887
bin	1.57352e-05	5998
bin	1.58064e-05	6010
bin	1.58776e-05	5973
bin	1.59488e-05	5893
bin	1.602e-05	5932
bin	1.60912e-05	5830
bin	1.61624e-05	5869
bin	1.62336e-05	5961
bin	1.63048e-05	5813
bin	1.6376e-05	5771
bin	1.64472e-05	5832
bin	1.65184e-05	5895
bin	1.65896e-05	5911
bin	1.66608e-05	6049
bin	1.6732e-05	5886
bin	1.68032e-05	5750
bin	1.68744e-05	5827
bin	1.69456e-05	5934
bin	1.70168e-05	5690
bin	1.7088e-05	5652
bin	1.71592e-05	5806
bin	1.72304e-05	5752
bin	1.73016e-05	5825
bin	1.73728e-05	5708
bin	1.7444e-05	5712
bin	1.75152e-05	5824
bin	1.75864e-05	5871
bin	1.76576e-05	5759
bin	1.77288e-05	5807
bin	1.78e-05	5766
bin	1.78712e-05	5727
bin	1.79424e-05	5755
bin	1.80136e-05	5702
bin	1.80848e-05	5718
bin	1.8156e-05	5736
bin	1.82272e-05	5737
bin	1.82984e-05	5843
bin	1.83696e-05	5796
bin	1.84408e-05	5652
bin	1.8512e-05	5824
bin	1.85832e-05	5767
bin	1.86544e-05	5698
bin	1.87256e-05	5683
bin	1.87968e-05	5647
bin	1.8868e-05	5787
bin	1.89392e-05	5806
bin	1.90104e-05	5772
bin	1.90816e-05	5896
bin	1.91528e-05	5651
bin	1.9224e-05	5698
bin	1.92952e-05	5765
bin	1.93664e-05	5916
bin	1.94376e-05	5811
bin	1.95088e-05	5866
bin	1.958e-05	5825
bin	1.96512e-05	5889
bin	1.97224e-05	5749
bin	1.97936e-05	5941
bin	1.98648e-05	5885
bin	1.9936e-05	5900
bin	2.00072e-05	5986
bin	2.00784e-05	5966
bin	2.01496e-05	5813
bin	2.02208e-05	5761
bin	2.0292e-05	5887
bin	2.03632e-05	5698
bin	2.04344e-05	5724
bin	2.05056e-05	5861
bin	2.05768e-05	5831
bin	2.0648e-05	5868
bin	2.07192e-05	5869
bin	2.07904e-05	5783
bin	2.08616e-05	5792
bin	2.09328e-05	5726
bin	2.1004e-05	5741
bin	2.10752e-05	5793
bin	2.11464e-05	5935
bin	2.12176e-05	5920
bin	2.12888e-05	5905
bin	2.136e-05	5886
bin	2.14312e-05	5708
bin	2.15024e-05	5991
bin	2.15736e-05	5940
bin	2.16448e-05	5864
bin	2.1716e-05	5723
bin	2.17872e-05	5765
bin	2.18584e-05	5787
bin	2.19296e-05	5802
bin	2.20008e-05	5802
bin	2.2072e-05	5888
bin	2.21432e-05	5825
bin	2.22144e-05	5811
bin	2.22856e-05	5765
bin	2.23568e-05	5786
bin	2.2428e-05	5761
bin	2.24992e-05	5714
bin	2.25704e-05	5753
bin	2.26416e-05	5717
bin	2.27128e-05	5713
bin	2.2784e-05	5723
bin	2.28552e-05	5774
bin	2.29264e-05	5744
bin	2.29976e-05	5832
bin	2.30688e-05	5765
bin	2.314e-05	5672
bin	2.32112e-05	5754
bin	2.32824e-05	5779
bin	2.33536e-05	5788
bin	2.34248e-05	5678
bin	2.3496e-05	5770
bin	2.35672e-05	5858
bin	2.36384e-05	5836
bin	2.37096e-05	5861
bin	2.37808e-05	5907
bin	2.3852e-05	5753
bin	2.39232e-05	5619
bin	2.39944e-05	5681
bin	2.40656e-05	5646
bin	2.41368e-05	5541
bin	2.4208e-05	5696
bin	2.42792e-05	5740
bin	2.43504e-05	5740
bin	2.44216e-05	5684
bin	2.44928e-05	5721
bin	2.4564e-05	5682
bin	2.46352e-05	5814
bin	2.47064e-05	5782
bin	2.47776e-05	5773
bin	2.48488e-05	5786
bin	2.492e-05	5617
bin	2.49912e-05	5719
bin	2.50624e-05	5798
bin	2.51336e-05	5553
bin	2.52048e-05	5726
bin	2.5276e-05	5680
bin	2.53472e-05	5641
bin	2.54184e-05	5739
bin	2.54896e-05	5696
bin	2.55608e-05	5653
bin	2.5632e-05	5549
bin	2.57032e-05	5564
bin	2.57744e-05	5678
bin	2.58456e-05	5515
bin	2.59168e-05	5582
bin	2.5988e-05	5625
bin	2.60592e-05	5518
bin	2.61304e-05	5488
bin	2.62016e-05	5542
bin	2.62728e-05	5541
bin	2.6344e-05	5550
bin	2.64152e-05	5334
bin	2.64864e-05	5377
bin	2.65576e-05	5483
bin	2.66288e-05	5414
bin	2.67e-05	5522
bin	2.67712e-05	5503
bin	2.68424e-05	5688
bin	2.69136e-05	5435
bin	2.69848e-05	5663
bin	2.7056e-05	5601
bin	2.71272e-05	5566
bin	2.71984e-05	5699
bin	2.72696e-05	5631
bin	2.73408e-05	5467
bin	2.7412e-05	5526
bin	2.74832e-05	5572
bin	2.75544e-05	5565
bin	2.76256e-05	5523
bin	2.76968e-05	5491
bin	2.7768e-05	5481
bin	2.78392e-05	5471
bin	2.79104e-05	5544
bin	2.79816e-05	5443
bin	2.80528e-05	5611
bin	2.8124e-05	5703
bin	2.81952e-05	5490
bin	2.82664e-05	5310
bin	2.83376e-05	5498
bin	2.84088e-05	5584
bin	2.848e-05	5571
bin	2.85512e-05	5514
bin	2.86224e-05	5465
bin	2.86936e-05	5574
bin	2.87648e-05	5548
bin	2.8836e-05	5531
bin	2.89072e-05	5607
bin	2.89784e-05	5532
bin	2.90496e-05	5734
bin	2.91208e-05	5578
bin	2.9192e-05	5568
bin	2.92632e-05	5610
bin	2.93344e-05	5595
bin	2.94056e-05	5536
bin	2.94768e-05	5660
bin	2.9548e-05	5534
bin	2.96192e-05	5704
bin	2.96904e-05	5465
bin	2.97616e-05	5723
bin	2.98328e-05	5579
bin	2.9904e-05	5529
bin	2.99752e-05	5604
bin	3.00464e-05	5519
bin	3.01176e-05	5575
bin	3.01888e-05	5588
bin	3.026e-05	5610
bin	3.03312e-05	5460
bin	3.04024e-05	5560
bin	3.04736e-05	5492
bin	3.05448e-05	5470
bin	3.0616e-05	5473
bin	3.06872e-05	5548
bin	3.07584e-05	5498
bin	3.08296e-05	5552
bin	3.09008e-05	5493
bin	3.0972e-05	5449
bin	3.10432e-05	5426
bin	3.11144e-05	5441
bin	3.11856e-05	5562
bin	3.12568e-05	5488
bin	3.1328e-05	5540
bin	3.13992e-05	5540
bin	3.14704e-05	5407
bin	3.15416e-05	5418
bin	3.16128e-05	5467
bin	3.1684e-05	5464
bin	3.17552e-05	5537
bin	3.18264e-05	5415
bin	3.18976e-05	5373
bin	3.19688e-05	5377
bin	3.204e-05	5464
bin	3.21112e-05	5632
bin	3.21824e-05	5633
bin	3.22536e-05	5660
bin	3.23248e-05	5592
bin	3.2396e-05	5519
bin	3.24672e-05	5552
bin	3.25384e-05	5406
bin	3.26096e-05	5644
bin	3.26808e-05	5475
bin	3.2752e-05	5326
bin	3.28232e-05	5437
bin	3.28944e-05	5475
bin	3.29656e-05	5590
bin	3.30368e-05	5489
bin	3.3108e-05	5553
bin	3.31792e-05	5435
bin	3.32504e-05	5406
bin	3.33216e-05	5506
bin	3.33928e-05	5442
bin	3.3464e-05	5532
bin	3.35352e-05	5573
bin	3.36064e-05	5498
bin	3.36776e-05	5535
bin	3.37488e-05	5539
bin	3.382e-05	5575
bin	3.38912e-05	5704
bin	3.39624e-05	5741
bin	3.40336e-05	5632
bin	3.41048e-05	5588
bin	3.4176e-05	5574
bin	3.42472e-05	5511
bin	3.43184e-05	5611
bin	3.43896e-05	5728
bin	3.44608e-05	5761
bin	3.4532e-05	5496
bin	3.46032e-05	5614
bin	3.46744e-05	5612
bin	3.47456e-05	5697
bin	3.48168e-05	5537
bin	3.4888e-05	5549
bin	3.49592e-05	5594
bin	3.50304e-05	5573
bin	3.51016e-05	5524
bin	3.51728e-05	5575
bin	3.5244e-05	5489
bin	3.53152e-05	5681
bin	3.53864e-05	5532
bin	3.54576e-05	5616
bin	3.55288e-05	5588
bin	3.56e-05	2857871
statistic Torus3d_bub.timer 	"Life Times"
field count 6291456
field mean 0.00046412499096954
field stddev 0.00031846249301117
field sum 2920.0219591852
field sqrsum 1.9933242101219
field min 2.06666513e-07
field max 0.001636384999961
bin	-INF	0
bin	0	27
bin	8.544e-07	233
bin	1.7088e-06	773
bin	2.5632e-06	1483
bin	3.4176e-06	2271
bin	4.272e-06	3163
bin	5.1264e-06	3977
bin	5.9808e-06	4865
bin	6.8352e-06	5824
bin	7.6896e-06	6965
bin	8.544e-06	8007
bin	9.3984e-06	9323
bin	1.02528e-05	10557
bin	1.11072e-05	11184
bin	1.19616e-05	12031
bin	1.2816e-05	13054
bin	1.36704e-05	13931
bin	1.45248e-05	14850
bin	1.53792e-05	15876
bin	1.62336e-05	16827
bin	1.7088e-05	17751
bin	1.79424e-05	18861
bin	1.87968e-05	19599
bin	1.96512e-05	20737
bin	2.05056e-05	21655
bin	2.136e-05	22896
bin	2.22144e-05	23903
bin	2.30688e-05	24863
bin	2.39232e-05	25956
bin	2.47776e-05	26800
bin	2.5632e-05	26571
bin	2.64864e-05	25913
bin	2.73408e-05	24996
bin	2.81952e-05	23923
bin	2.90496e-05	22592
bin	2.9904e-05	21339
bin	3.07584e-05	20026
bin	3.16128e-05	18308
bin	3.24672e-05	17191
bin	3.33216e-05	16145
bin	3.4176e-05	14880
bin	3.50304e-05	13965
bin	3.58848e-05	12813
bin	3.67392e-05	12275
bin	3.75936e-05	11672
bin	3.8448e-05	11244
bin	3.93024e-05	10733
bin	4.01568e-05	10350
bin	4.10112e-05	10042
bin	4.18656e-05	9855
bin	4.272e-05	9419
bin	4.35744e-05	9330
bin	4.44288e-05	9360
bin	4.52832e-05	9139
bin	4.61376e-05	9128
bin	4.6992e-05	9060
bin	4.78464e-05	8862
bin	4.87008e-05	8919
bin	4.95552e-05	8780
bin	5.04096e-05	8527
bin	5.1264e-05	8543
bin	5.21184e-05	8347
bin	5.29728e-05	8157
bin	5.38272e-05	8002
bin	5.46816e-05	7578
bin	5.5536e-05	7367
bin	5.63904e-05	7118
bin	5.72448e-05	7018
bin	5.80992e-05	6709
bin	5.89536e-05	6795
bin	5.9808e-05	6631
bin	6.06624e-05	6411
bin	6.15168e-05	6476
bin	6.23712e-05	6202
bin	6.32256e-05	6213
bin	6.408e-05	6062
bin	6.49344e-05	5946
bin	6.57888e-05	6109
bin	6.66432e-05	6021
bin	6.74976e-05	5901
bin	6.8352e-05	5919
bin	6.92064e-05	5917
bin	7.00608e-05	5787
bin	7.09152e-05	5892
bin	7.17696e-05	5921
bin	7.2624e-05	5880
bin	7.34784e-05	5917
bin	7.43328e-05	5927
bin	7.51872e-05	5764
bin	7.60416e-05	5799
bin	7.6896e-05	5711
bin	7.77504e-05	5633
bin	7.86048e-05	5648
bin	7.94592e-05	5672
bin	8.03136e-05	5574
bin	8.1168e-05	5636
bin	8.20224e-05	5581
bin	8.28768e-05	5472
bin	8.37312e-05	5394
bin	8.45856e-05	5515
bin	8.544e-05	5432
bin	8.62944e-05	5384
bin	8.71488e-05	5349
bin	8.80032e-05	5337
bin	8.88576e-05	5322
bin	8.9712e-05	5316
bin	9.05664e-05	5345
bin	9.14208e-05	5257
bin	9.22752e-05	5182
bin	9.31296e-05	5281
bin	9.3984e-05	5316
bin	9.48384e-05	5285
bin	9.56928e-05	5377
bin	9.65472e-05	5294
bin	9.74016e-05	5303
bin	9.8256e-05	5284
bin	9.91104e-05	5369
bin	9.99648e-05	5387
bin	0.0001008192	5315
bin	0.0001016736	5278
bin	0.000102528	5219
bin	0.0001033824	5148
bin	0.0001042368	5260
bin	0.0001050912	5119
bin	0.0001059456	5176
bin	0.0001068	5196
bin	0.0001076544	5209
bin	0.0001085088	5242
bin	0.0001093632	5149
bin	0.0001102176	5117
bin	0.000111072	5101
bin	0.0001119264	5190
bin	0.0001127808	5278
bin	0.0001136352	5195
bin	0.0001144896	5131
bin	0.000115344	5192
bin	0.0001161984	5142
bin	0.0001170528	5191
bin	0.0001179072	5111
bin	0.0001187616	5104
bin	0.000119616	5201
bin	0.0001204704	5079
bin	0.0001213248	5046
bin	0.0001221792	5093
bin	0.0001230336	5206
bin	0.000123888	5130
bin	0.0001247424	5198
bin	0.0001255968	5102
bin	0.0001264512	5056
bin	0.0001273056	5140
bin	0.00012816	5133
bin	0.0001290144	4942
bin	0.0001298688	4991
bin	0.0001307232	4919
bin	0.0001315776	5000
bin	0.000132432	5135
bin	0.0001332864	5077
bin	0.0001341408	5076
bin	0.0001349952	5035
bin	0.0001358496	5021
bin	0.000136704	5191
bin	0.0001375584	5048
bin	0.0001384128	5093
bin	0.0001392672	5118
bin	0.0001401216	4968
bin	0.000140976	5067
bin	0.0001418304	5062
bin	0.0001426848	5033
bin	0.0001435392	4953
bin	0.0001443936	5008
bin	0.000145248	5047
bin	0.0001461024	4932
bin	0.0001469568	4872
bin	0.0001478112	5160
bin	0.0001486656	5094
bin	0.00014952	4954
bin	0.0001503744	5148
bin	0.0001512288	5005
bin	0.0001520832	5002
bin	0.0001529376	4987
bin	0.000153792	4951
bin	0.0001546464	4923
bin	0.0001555008	5020
bin	0.0001563552	5018
bin	0.0001572096	5076
bin	0.000158064	5003
bin	0.0001589184	5125
bin	0.0001597728	5097
bin	0.0001606272	5081
bin	0.0001614816	4960
bin	0.000162336	5022
bin	0.0001631904	4982
bin	0.0001640448	5002
bin	0.0001648992	5205
bin	0.0001657536	5063
bin	0.000166608	4998
bin	0.0001674624	4976
bin	0.0001683168	5009
bin	0.0001691712	5052
bin	0.0001700256	4993
bin	0.00017088	4944
bin	0.0001717344	5006
bin	0.0001725888	5110
bin	0.0001734432	5133
bin	0.0001742976	5144
bin	0.000175152	5013
bin	0.0001760064	4915
bin	0.0001768608	5013
bin	0.0001777152	5083
bin	0.0001785696	4996
bin	0.000179424	4970
bin	0.0001802784	5072
bin	0.0001811328	4962
bin	0.0001819872	5059
bin	0.0001828416	4991
bin	0.000183696	4976
bin	0.0001845504	4971
bin	0.0001854048	4985
bin	0.0001862592	4973
bin	0.0001871136	4896
bin	0.000187968	4944
bin	0.0001888224	4929
bin	0.0001896768	4936
bin	0.0001905312	4969
bin	0.0001913856	4913
bin	0.00019224	5005
bin	0.0001930944	4921
bin	0.0001939488	4901
bin	0.0001948032	4979
bin	0.0001956576	4927
bin	0.000196512	4871
bin	0.0001973664	4898
bin	0.0001982208	4936
bin	0.0001990752	4958
bin	0.0001999296	4959
bin	0.000200784	4741
bin	0.0002016384	4844
bin	0.0002024928	4841
bin	0.0002033472	5035
bin	0.0002042016	5034
bin	0.000205056	5000
bin	0.0002059104	4967
bin	0.0002067648	4938
bin	0.0002076192	4795
bin	0.0002084736	4777
bin	0.000209328	4850
bin	0.0002101824	4869
bin	0.0002110368	4898
bin	0.0002118912	4904
bin	0.0002127456	4916
bin	0.0002136	4872
bin	0.0002144544	4760
bin	0.0002153088	4922
bin	0.0002161632	4997
bin	0.0002170176	4879
bin	0.000217872	4842
bin	0.0002187264	4895
bin	0.0002195808	4901
bin	0.0002204352	4911
bin	0.0002212896	4899
bin	0.000222144	5019
bin	0.0002229984	4855
bin	0.0002238528	4980
bin	0.0002247072	4942
bin	0.0002255616	4912
bin	0.000226416	4966
bin	0.0002272704	4994
bin	0.0002281248	5151
bin	0.0002289792	4962
bin	0.0002298336	5081
bin	0.000230688	5031
bin	0.0002315424	5002
bin	0.0002323968	5041
bin	0.0002332512	5024
bin	0.0002341056	4986
bin	0.00023496	4921
bin	0.0002358144	5020
bin	0.0002366688	4957
bin	0.0002375232	5120
bin	0.0002383776	5037
bin	0.000239232	4937
bin	0.0002400864	5009
bin	0.0002409408	5023
bin	0.0002417952	4888
bin	0.0002426496	4962
bin	0.000243504	4907
bin	0.0002443584	4870
bin	0.0002452128	4951
bin	0.0002460672	4992
bin	0.0002469216	4888
bin	0.000247776	5009
bin	0.0002486304	4904
bin	0.0002494848	4924
bin	0.0002503392	5028
bin	0.0002511936	4917
bin	0.000252048	4972
bin	0.0002529024	5044
bin	0.0002537568	5014
bin	0.0002546112	4844
bin	0.0002554656	4963
bin	0.00025632	4892
bin	0.0002571744	4827
bin	0.0002580288	4933
bin	0.0002588832	4940
bin	0.0002597376	4923
bin	0.000260592	4837
bin	0.0002614464	4931
bin	0.0002623008	4925
bin	0.0002631552	4991
bin	0.0002640096	4956
bin	0.000264864	4902
bin	0.0002657184	4878
bin	0.0002665728	5006
bin	0.0002674272	4949
bin	0.0002682816	5010
bin	0.000269136	4993
bin	0.0002699904	4970
bin	0.0002708448	4954
bin	0.0002716992	4926
bin	0.0002725536	5029
bin	0.000273408	4959
bin	0.0002742624	4945
bin	0.0002751168	4837
bin	0.0002759712	4910
bin	0.0002768256	4847
bin	0.00027768	4874
bin	0.0002785344	4852
bin	0.0002793888	4977
bin	0.0002802432	4776
bin	0.0002810976	4818
bin	0.000281952	4902
bin	0.0002828064	4844
bin	0.0002836608	4969
bin	0.0002845152	4952
bin	0.0002853696	4986
bin	0.000286224	4870
bin	0.0002870784	4928
bin	0.0002879328	4879
bin	0.0002887872	4949
bin	0.0002896416	4761
bin	0.000290496	4762
bin	0.0002913504	4761
bin	0.0002922048	4831
bin	0.0002930592	4868
bin	0.0002939136	4843
bin	0.000294768	4870
bin	0.0002956224	4832
bin	0.0002964768	4944
bin	0.0002973312	4848
bin	0.0002981856	4885
bin	0.00029904	4906
bin	0.0002998944	4805
bin	0.0003007488	4928
bin	0.0003016032	4857
bin	0.0003024576	4983
bin	0.000303312	4918
bin	0.0003041664	4805
bin	0.0003050208	4868
bin	0.0003058752	4924
bin	0.0003067296	4821
bin	0.000307584	4924
bin	0.0003084384	4837
bin	0.0003092928	4911
bin	0.0003101472	4824
bin	0.0003110016	4938
bin	0.000311856	4889
bin	0.0003127104	4775
bin	0.0003135648	4760
bin	0.0003144192	4849
bin	0.0003152736	4850
bin	0.000316128	4917
bin	0.0003169824	4839
bin	0.0003178368	4863
bin	0.0003186912	4819
bin	0.0003195456	4800
bin	0.0003204	4920
bin	0.0003212544	4787
bin	0.0003221088	4906
bin	0.0003229632	4865
bin	0.0003238176	4799
bin	0.000324672	4920
bin	0.0003255264	4894
bin	0.0003263808	4842
bin	0.0003272352	4766
bin	0.0003280896	4729
bin	0.000328944	4814
bin	0.0003297984	4829
bin	0.0003306528	5056
bin	0.0003315072	4954
bin	0.0003323616	4805
bin	0.000333216	4946
bin	0.0003340704	4984
bin	0.0003349248	4792
bin	0.0003357792	4804
bin	0.0003366336	4810
bin	0.000337488	4809
bin	0.0003383424	4895
bin	0.0003391968	4792
bin	0.0003400512	4884
bin	0.0003409056	4836
bin	0.00034176	4931
bin	0.0003426144	4936
bin	0.0003434688	4850
bin	0.0003443232	4939
bin	0.0003451776	4933
bin	0.000346032	4872
bin	0.0003468864	4922
bin	0.0003477408	5037
bin	0.0003485952	5056
bin	0.0003494496	4974
bin	0.000350304	4949
bin	0.0003511584	4981
bin	0.0003520128	4952
bin	0.0003528672	5139
bin	0.0003537216	4923
bin	0.000354576	4895
bin	0.0003554304	4999
bin	0.0003562848	4797
bin	0.0003571392	4980
bin	0.0003579936	4897
bin	0.000358848	4935
bin	0.0003597024	4789
bin	0.0003605568	4749
bin	0.0003614112	4872
bin	0.0003622656	4630
bin	0.00036312	4819
bin	0.0003639744	4931
bin	0.0003648288	4930
bin	0.0003656832	4872
bin	0.0003665376	4897
bin	0.000367392	4920
bin	0.0003682464	4946
bin	0.0003691008	4866
bin	0.0003699552	4962
bin	0.0003708096	4851
bin	0.000371664	5053
bin	0.0003725184	4868
bin	0.0003733728	4960
bin	0.0003742272	4954
bin	0.0003750816	4779
bin	0.000375936	4927
bin	0.0003767904	4964
bin	0.0003776448	4945
bin	0.0003784992	4881
bin	0.0003793536	4955
bin	0.000380208	5023
bin	0.0003810624	4990
bin	0.0003819168	5005
bin	0.0003827712	4975
bin	0.0003836256	5019
bin	0.00038448	4789
bin	0.0003853344	4924
bin	0.0003861888	5084
bin	0.0003870432	5037
bin	0.0003878976	4859
bin	0.000388752	4917
bin	0.0003896064	4940
bin	0.0003904608	4883
bin	0.0003913152	4973
bin	0.0003921696	4927
bin	0.000393024	4943
bin	0.0003938784	4945
bin	0.0003947328	4927
bin	0.0003955872	5012
bin	0.0003964416	5004
bin	0.000397296	4891
bin	0.0003981504	4990
bin	0.0003990048	4988
bin	0.0003998592	4871
bin	0.0004007136	4936
bin	0.000401568	5111
bin	0.0004024224	4995
bin	0.0004032768	4819
bin	0.0004041312	4944
bin	0.0004049856	4918
bin	0.00040584	4973
bin	0.0004066944	4959
bin	0.0004075488	4886
bin	0.0004084032	5024
bin	0.0004092576	4776
bin	0.000410112	4874
bin	0.0004109664	4866
bin	0.0004118208	4875
bin	0.0004126752	4903
bin	0.0004135296	4926
bin	0.000414384	5018
bin	0.0004152384	4816
bin	0.0004160928	4819
bin	0.0004169472	4825
bin	0.0004178016	4906
bin	0.000418656	4781
bin	0.0004195104	4812
bin	0.0004203648	4884
bin	0.0004212192	5006
bin	0.0004220736	4951
bin	0.000422928	4796
bin	0.0004237824	4835
bin	0.0004246368	4841
bin	0.0004254912	4778
bin	0.0004263456	4841
bin	0.0004272	3247413
