version 2
run Uniform-52-20120709-17:40:05-24819
attr alg 0
attr buf 8
attr configname Uniform
attr datetime 20120709-17:40:05
attr delta 0.8
attr experiment Uniform
attr ext false
attr inifile altro.ini
attr iterationvars "$buf=8, $ext=false, $ofedge=1, $delta=0.8, $alg=0"
attr iterationvars2 "$buf=8, $ext=false, $ofedge=1, $delta=0.8, $alg=0, $repetition=0"
attr measurement "$buf=8, $ext=false, $ofedge=1, $delta=0.8, $alg=0"
attr network Torus3d_bub
attr ofedge 1
attr processid 24819
attr repetition 0
attr replication #0
attr resultdir altro-results
attr runnumber 52
attr seedset 52

scalar . 	alg 	0
scalar . 	buf 	8
scalar . 	delta 	0.8
scalar . 	ofedge 	1
scalar Torus3d_bub.timer 	#endTime 	0.001503737330984
scalar Torus3d_bub.timer 	#totalHops 	75514752
scalar Torus3d_bub.timer 	#totalPacks 	6291456
scalar Torus3d_bub.timer 	#totalDerouted 	0
scalar Torus3d_bub.timer 	#totalOutFlanked 	0
scalar Torus3d_bub.timer 	#totalCQRed 	0
scalar Torus3d_bub.timer 	#LB 	0.000786432
scalar Torus3d_bub.timer 	#ratio 	0.52298495474963
statistic Torus3d_bub.timer 	"Hop Times"
field count 6289680
field mean 2.0178974753934e-05
field stddev 2.3268416740217e-05
field sum 126.91929393032
field sqrsum 0.0059664543111199
field min 3.77125e-07
field max 0.00070180566657
bin	-INF	0
bin	0	0
bin	7.12e-08	0
bin	1.424e-07	0
bin	2.136e-07	0
bin	2.848e-07	0
bin	3.56e-07	258
bin	4.272e-07	1692
bin	4.984e-07	4166
bin	5.696e-07	7035
bin	6.408e-07	10356
bin	7.12e-07	14005
bin	7.832e-07	16838
bin	8.544e-07	19401
bin	9.256e-07	22009
bin	9.968e-07	24066
bin	1.068e-06	26215
bin	1.1392e-06	28507
bin	1.2104e-06	31139
bin	1.2816e-06	34767
bin	1.3528e-06	38696
bin	1.424e-06	42968
bin	1.4952e-06	46967
bin	1.5664e-06	51019
bin	1.6376e-06	54168
bin	1.7088e-06	56466
bin	1.78e-06	58317
bin	1.8512e-06	58990
bin	1.9224e-06	59333
bin	1.9936e-06	58814
bin	2.0648e-06	57739
bin	2.136e-06	56036
bin	2.2072e-06	54335
bin	2.2784e-06	51755
bin	2.3496e-06	49542
bin	2.4208e-06	47512
bin	2.492e-06	45134
bin	2.5632e-06	43034
bin	2.6344e-06	41061
bin	2.7056e-06	38776
bin	2.7768e-06	37483
bin	2.848e-06	35316
bin	2.9192e-06	33481
bin	2.9904e-06	32029
bin	3.0616e-06	31111
bin	3.1328e-06	29471
bin	3.204e-06	28468
bin	3.2752e-06	27099
bin	3.3464e-06	26298
bin	3.4176e-06	25347
bin	3.4888e-06	24384
bin	3.56e-06	23564
bin	3.6312e-06	23065
bin	3.7024e-06	22089
bin	3.7736e-06	21518
bin	3.8448e-06	20887
bin	3.916e-06	20333
bin	3.9872e-06	19547
bin	4.0584e-06	19094
bin	4.1296e-06	18830
bin	4.2008e-06	18298
bin	4.272e-06	18055
bin	4.3432e-06	17446
bin	4.4144e-06	16996
bin	4.4856e-06	16686
bin	4.5568e-06	16325
bin	4.628e-06	16113
bin	4.6992e-06	15935
bin	4.7704e-06	15321
bin	4.8416e-06	15225
bin	4.9128e-06	14882
bin	4.984e-06	14648
bin	5.0552e-06	14434
bin	5.1264e-06	14345
bin	5.1976e-06	13961
bin	5.2688e-06	14125
bin	5.34e-06	13506
bin	5.4112e-06	13617
bin	5.4824e-06	13201
bin	5.5536e-06	13240
bin	5.6248e-06	13063
bin	5.696e-06	12936
bin	5.7672e-06	12674
bin	5.8384e-06	12650
bin	5.9096e-06	12423
bin	5.9808e-06	12399
bin	6.052e-06	12014
bin	6.1232e-06	12175
bin	6.1944e-06	12097
bin	6.2656e-06	11830
bin	6.3368e-06	11727
bin	6.408e-06	11577
bin	6.4792e-06	11518
bin	6.5504e-06	11517
bin	6.6216e-06	11213
bin	6.6928e-06	11318
bin	6.764e-06	11111
bin	6.8352e-06	11055
bin	6.9064e-06	11038
bin	6.9776e-06	10830
bin	7.0488e-06	10983
bin	7.12e-06	10799
bin	7.1912e-06	10903
bin	7.2624e-06	10755
bin	7.3336e-06	10519
bin	7.4048e-06	10513
bin	7.476e-06	10342
bin	7.5472e-06	10168
bin	7.6184e-06	10224
bin	7.6896e-06	10286
bin	7.7608e-06	10337
bin	7.832e-06	10222
bin	7.9032e-06	10119
bin	7.9744e-06	10159
bin	8.0456e-06	10021
bin	8.1168e-06	9851
bin	8.188e-06	10016
bin	8.2592e-06	9896
bin	8.3304e-06	9834
bin	8.4016e-06	9674
bin	8.4728e-06	9770
bin	8.544e-06	9662
bin	8.6152e-06	9688
bin	8.6864e-06	9569
bin	8.7576e-06	9716
bin	8.8288e-06	9685
bin	8.9e-06	9545
bin	8.9712e-06	9706
bin	9.0424e-06	9534
bin	9.1136e-06	9143
bin	9.1848e-06	9298
bin	9.256e-06	9404
bin	9.3272e-06	9169
bin	9.3984e-06	8955
bin	9.4696e-06	9150
bin	9.5408e-06	9162
bin	9.612e-06	9013
bin	9.6832e-06	8795
bin	9.7544e-06	9018
bin	9.8256e-06	8788
bin	9.8968e-06	8962
bin	9.968e-06	9011
bin	1.00392e-05	8979
bin	1.01104e-05	8832
bin	1.01816e-05	8900
bin	1.02528e-05	8859
bin	1.0324e-05	9105
bin	1.03952e-05	8705
bin	1.04664e-05	8768
bin	1.05376e-05	8676
bin	1.06088e-05	8696
bin	1.068e-05	8714
bin	1.07512e-05	8630
bin	1.08224e-05	8634
bin	1.08936e-05	8634
bin	1.09648e-05	8614
bin	1.1036e-05	8482
bin	1.11072e-05	8627
bin	1.11784e-05	8536
bin	1.12496e-05	8508
bin	1.13208e-05	8584
bin	1.1392e-05	8544
bin	1.14632e-05	8430
bin	1.15344e-05	8462
bin	1.16056e-05	8466
bin	1.16768e-05	8501
bin	1.1748e-05	8422
bin	1.18192e-05	8307
bin	1.18904e-05	8466
bin	1.19616e-05	8306
bin	1.20328e-05	8277
bin	1.2104e-05	8341
bin	1.21752e-05	8199
bin	1.22464e-05	8252
bin	1.23176e-05	8140
bin	1.23888e-05	8060
bin	1.246e-05	8298
bin	1.25312e-05	8248
bin	1.26024e-05	8342
bin	1.26736e-05	8276
bin	1.27448e-05	8001
bin	1.2816e-05	8056
bin	1.28872e-05	8181
bin	1.29584e-05	8209
bin	1.30296e-05	7898
bin	1.31008e-05	8050
bin	1.3172e-05	8023
bin	1.32432e-05	8058
bin	1.33144e-05	7904
bin	1.33856e-05	7787
bin	1.34568e-05	7814
bin	1.3528e-05	7784
bin	1.35992e-05	7778
bin	1.36704e-05	7834
bin	1.37416e-05	7835
bin	1.38128e-05	7692
bin	1.3884e-05	7526
bin	1.39552e-05	7774
bin	1.40264e-05	7743
bin	1.40976e-05	7737
bin	1.41688e-05	7693
bin	1.424e-05	7698
bin	1.43112e-05	7781
bin	1.43824e-05	7768
bin	1.44536e-05	7681
bin	1.45248e-05	7742
bin	1.4596e-05	7765
bin	1.46672e-05	7849
bin	1.47384e-05	7754
bin	1.48096e-05	7746
bin	1.48808e-05	7644
bin	1.4952e-05	7683
bin	1.50232e-05	7656
bin	1.50944e-05	7543
bin	1.51656e-05	7614
bin	1.52368e-05	7745
bin	1.5308e-05	7660
bin	1.53792e-05	7564
bin	1.54504e-05	7437
bin	1.55216e-05	7417
bin	1.55928e-05	7573
bin	1.5664e-05	7484
bin	1.57352e-05	7459
bin	1.58064e-05	7594
bin	1.58776e-05	7572
bin	1.59488e-05	7703
bin	1.602e-05	7464
bin	1.60912e-05	7465
bin	1.61624e-05	7456
bin	1.62336e-05	7552
bin	1.63048e-05	7576
bin	1.6376e-05	7321
bin	1.64472e-05	7483
bin	1.65184e-05	7464
bin	1.65896e-05	7454
bin	1.66608e-05	7343
bin	1.6732e-05	7359
bin	1.68032e-05	7388
bin	1.68744e-05	7461
bin	1.69456e-05	7397
bin	1.70168e-05	7285
bin	1.7088e-05	7382
bin	1.71592e-05	7356
bin	1.72304e-05	7453
bin	1.73016e-05	7295
bin	1.73728e-05	7378
bin	1.7444e-05	7305
bin	1.75152e-05	7351
bin	1.75864e-05	7230
bin	1.76576e-05	7285
bin	1.77288e-05	7302
bin	1.78e-05	7137
bin	1.78712e-05	7313
bin	1.79424e-05	7288
bin	1.80136e-05	7342
bin	1.80848e-05	7321
bin	1.8156e-05	7258
bin	1.82272e-05	7243
bin	1.82984e-05	7155
bin	1.83696e-05	7403
bin	1.84408e-05	7248
bin	1.8512e-05	7224
bin	1.85832e-05	7181
bin	1.86544e-05	7277
bin	1.87256e-05	7300
bin	1.87968e-05	7099
bin	1.8868e-05	7225
bin	1.89392e-05	7122
bin	1.90104e-05	7140
bin	1.90816e-05	7178
bin	1.91528e-05	7273
bin	1.9224e-05	7246
bin	1.92952e-05	7326
bin	1.93664e-05	7237
bin	1.94376e-05	7166
bin	1.95088e-05	7173
bin	1.958e-05	7237
bin	1.96512e-05	7202
bin	1.97224e-05	7260
bin	1.97936e-05	7165
bin	1.98648e-05	7058
bin	1.9936e-05	7238
bin	2.00072e-05	7144
bin	2.00784e-05	7073
bin	2.01496e-05	6895
bin	2.02208e-05	7075
bin	2.0292e-05	6982
bin	2.03632e-05	7085
bin	2.04344e-05	6913
bin	2.05056e-05	7016
bin	2.05768e-05	7040
bin	2.0648e-05	7014
bin	2.07192e-05	6966
bin	2.07904e-05	6972
bin	2.08616e-05	7078
bin	2.09328e-05	7052
bin	2.1004e-05	6874
bin	2.10752e-05	6924
bin	2.11464e-05	6870
bin	2.12176e-05	7018
bin	2.12888e-05	6935
bin	2.136e-05	6895
bin	2.14312e-05	7010
bin	2.15024e-05	6997
bin	2.15736e-05	6951
bin	2.16448e-05	7004
bin	2.1716e-05	6837
bin	2.17872e-05	6961
bin	2.18584e-05	7015
bin	2.19296e-05	6857
bin	2.20008e-05	6961
bin	2.2072e-05	6898
bin	2.21432e-05	6883
bin	2.22144e-05	6956
bin	2.22856e-05	6934
bin	2.23568e-05	7022
bin	2.2428e-05	7071
bin	2.24992e-05	6770
bin	2.25704e-05	6942
bin	2.26416e-05	6844
bin	2.27128e-05	6864
bin	2.2784e-05	6885
bin	2.28552e-05	6839
bin	2.29264e-05	6754
bin	2.29976e-05	6858
bin	2.30688e-05	6873
bin	2.314e-05	6796
bin	2.32112e-05	6835
bin	2.32824e-05	6840
bin	2.33536e-05	6731
bin	2.34248e-05	6978
bin	2.3496e-05	6804
bin	2.35672e-05	6743
bin	2.36384e-05	6792
bin	2.37096e-05	6872
bin	2.37808e-05	6873
bin	2.3852e-05	6691
bin	2.39232e-05	6589
bin	2.39944e-05	6718
bin	2.40656e-05	6697
bin	2.41368e-05	6873
bin	2.4208e-05	6763
bin	2.42792e-05	6683
bin	2.43504e-05	6764
bin	2.44216e-05	6847
bin	2.44928e-05	6924
bin	2.4564e-05	6790
bin	2.46352e-05	6839
bin	2.47064e-05	6763
bin	2.47776e-05	6713
bin	2.48488e-05	6860
bin	2.492e-05	6820
bin	2.49912e-05	6740
bin	2.50624e-05	6569
bin	2.51336e-05	6615
bin	2.52048e-05	6751
bin	2.5276e-05	6642
bin	2.53472e-05	6599
bin	2.54184e-05	6524
bin	2.54896e-05	6602
bin	2.55608e-05	6572
bin	2.5632e-05	6624
bin	2.57032e-05	6599
bin	2.57744e-05	6607
bin	2.58456e-05	6701
bin	2.59168e-05	6488
bin	2.5988e-05	6560
bin	2.60592e-05	6617
bin	2.61304e-05	6594
bin	2.62016e-05	6826
bin	2.62728e-05	6581
bin	2.6344e-05	6583
bin	2.64152e-05	6601
bin	2.64864e-05	6491
bin	2.65576e-05	6598
bin	2.66288e-05	6496
bin	2.67e-05	6465
bin	2.67712e-05	6568
bin	2.68424e-05	6465
bin	2.69136e-05	6494
bin	2.69848e-05	6458
bin	2.7056e-05	6448
bin	2.71272e-05	6476
bin	2.71984e-05	6560
bin	2.72696e-05	6487
bin	2.73408e-05	6425
bin	2.7412e-05	6576
bin	2.74832e-05	6361
bin	2.75544e-05	6335
bin	2.76256e-05	6390
bin	2.76968e-05	6363
bin	2.7768e-05	6388
bin	2.78392e-05	6364
bin	2.79104e-05	6391
bin	2.79816e-05	6375
bin	2.80528e-05	6331
bin	2.8124e-05	6394
bin	2.81952e-05	6441
bin	2.82664e-05	6477
bin	2.83376e-05	6370
bin	2.84088e-05	6412
bin	2.848e-05	6298
bin	2.85512e-05	6292
bin	2.86224e-05	6351
bin	2.86936e-05	6256
bin	2.87648e-05	6311
bin	2.8836e-05	6228
bin	2.89072e-05	6324
bin	2.89784e-05	6276
bin	2.90496e-05	6356
bin	2.91208e-05	6192
bin	2.9192e-05	6425
bin	2.92632e-05	6335
bin	2.93344e-05	6309
bin	2.94056e-05	6315
bin	2.94768e-05	6352
bin	2.9548e-05	6225
bin	2.96192e-05	6139
bin	2.96904e-05	6231
bin	2.97616e-05	6125
bin	2.98328e-05	6049
bin	2.9904e-05	6060
bin	2.99752e-05	5980
bin	3.00464e-05	5925
bin	3.01176e-05	6109
bin	3.01888e-05	6068
bin	3.026e-05	6006
bin	3.03312e-05	5874
bin	3.04024e-05	5842
bin	3.04736e-05	5744
bin	3.05448e-05	5826
bin	3.0616e-05	5746
bin	3.06872e-05	5795
bin	3.07584e-05	5810
bin	3.08296e-05	5845
bin	3.09008e-05	5716
bin	3.0972e-05	5802
bin	3.10432e-05	5785
bin	3.11144e-05	5732
bin	3.11856e-05	5689
bin	3.12568e-05	5791
bin	3.1328e-05	5752
bin	3.13992e-05	5718
bin	3.14704e-05	5698
bin	3.15416e-05	5645
bin	3.16128e-05	5643
bin	3.1684e-05	5578
bin	3.17552e-05	5555
bin	3.18264e-05	5432
bin	3.18976e-05	5511
bin	3.19688e-05	5494
bin	3.204e-05	5500
bin	3.21112e-05	5458
bin	3.21824e-05	5447
bin	3.22536e-05	5437
bin	3.23248e-05	5421
bin	3.2396e-05	5409
bin	3.24672e-05	5494
bin	3.25384e-05	5466
bin	3.26096e-05	5303
bin	3.26808e-05	5290
bin	3.2752e-05	5321
bin	3.28232e-05	5295
bin	3.28944e-05	5204
bin	3.29656e-05	5249
bin	3.30368e-05	5315
bin	3.3108e-05	5201
bin	3.31792e-05	5218
bin	3.32504e-05	5263
bin	3.33216e-05	5250
bin	3.33928e-05	5239
bin	3.3464e-05	5164
bin	3.35352e-05	5076
bin	3.36064e-05	4987
bin	3.36776e-05	4933
bin	3.37488e-05	5106
bin	3.382e-05	4915
bin	3.38912e-05	4949
bin	3.39624e-05	5000
bin	3.40336e-05	5037
bin	3.41048e-05	4907
bin	3.4176e-05	4841
bin	3.42472e-05	5029
bin	3.43184e-05	4932
bin	3.43896e-05	4865
bin	3.44608e-05	4955
bin	3.4532e-05	4827
bin	3.46032e-05	4825
bin	3.46744e-05	4862
bin	3.47456e-05	4931
bin	3.48168e-05	4889
bin	3.4888e-05	5024
bin	3.49592e-05	4867
bin	3.50304e-05	4835
bin	3.51016e-05	4824
bin	3.51728e-05	4898
bin	3.5244e-05	4755
bin	3.53152e-05	4736
bin	3.53864e-05	4695
bin	3.54576e-05	4540
bin	3.55288e-05	4558
bin	3.56e-05	1122192
statistic Torus3d_bub.timer 	"Life Times"
field count 6291456
field mean 0.00021211800789191
field stddev 0.00018643576809849
field sum 1334.5311134596
field sqrsum 0.50175833406748
field min 3.77332901e-07
field max 0.001369610333237
bin	-INF	0
bin	0	67
bin	8.544e-07	649
bin	1.7088e-06	2039
bin	2.5632e-06	3992
bin	3.4176e-06	6073
bin	4.272e-06	8646
bin	5.1264e-06	11086
bin	5.9808e-06	13416
bin	6.8352e-06	15902
bin	7.6896e-06	18409
bin	8.544e-06	21011
bin	9.3984e-06	23204
bin	1.02528e-05	25640
bin	1.11072e-05	27327
bin	1.19616e-05	29100
bin	1.2816e-05	31431
bin	1.36704e-05	33363
bin	1.45248e-05	35118
bin	1.53792e-05	37155
bin	1.62336e-05	38915
bin	1.7088e-05	41131
bin	1.79424e-05	42853
bin	1.87968e-05	45053
bin	1.96512e-05	46935
bin	2.05056e-05	48490
bin	2.136e-05	50258
bin	2.22144e-05	52030
bin	2.30688e-05	53526
bin	2.39232e-05	54216
bin	2.47776e-05	54946
bin	2.5632e-05	54777
bin	2.64864e-05	54300
bin	2.73408e-05	53875
bin	2.81952e-05	52561
bin	2.90496e-05	51462
bin	2.9904e-05	50094
bin	3.07584e-05	48207
bin	3.16128e-05	45691
bin	3.24672e-05	42697
bin	3.33216e-05	39356
bin	3.4176e-05	37038
bin	3.50304e-05	34854
bin	3.58848e-05	32407
bin	3.67392e-05	30447
bin	3.75936e-05	28546
bin	3.8448e-05	26674
bin	3.93024e-05	25447
bin	4.01568e-05	23796
bin	4.10112e-05	22527
bin	4.18656e-05	21466
bin	4.272e-05	20340
bin	4.35744e-05	19659
bin	4.44288e-05	18873
bin	4.52832e-05	18164
bin	4.61376e-05	17724
bin	4.6992e-05	17452
bin	4.78464e-05	16961
bin	4.87008e-05	16430
bin	4.95552e-05	16452
bin	5.04096e-05	16191
bin	5.1264e-05	16158
bin	5.21184e-05	16046
bin	5.29728e-05	15680
bin	5.38272e-05	15528
bin	5.46816e-05	15400
bin	5.5536e-05	15238
bin	5.63904e-05	15249
bin	5.72448e-05	15098
bin	5.80992e-05	15163
bin	5.89536e-05	14977
bin	5.9808e-05	15265
bin	6.06624e-05	14990
bin	6.15168e-05	15297
bin	6.23712e-05	14939
bin	6.32256e-05	14575
bin	6.408e-05	14423
bin	6.49344e-05	13855
bin	6.57888e-05	13645
bin	6.66432e-05	13492
bin	6.74976e-05	13098
bin	6.8352e-05	12640
bin	6.92064e-05	12372
bin	7.00608e-05	12253
bin	7.09152e-05	12009
bin	7.17696e-05	11742
bin	7.2624e-05	11401
bin	7.34784e-05	11498
bin	7.43328e-05	11187
bin	7.51872e-05	11164
bin	7.60416e-05	10931
bin	7.6896e-05	10956
bin	7.77504e-05	10895
bin	7.86048e-05	10752
bin	7.94592e-05	10691
bin	8.03136e-05	10680
bin	8.1168e-05	10690
bin	8.20224e-05	10587
bin	8.28768e-05	10580
bin	8.37312e-05	10658
bin	8.45856e-05	10546
bin	8.544e-05	10450
bin	8.62944e-05	10555
bin	8.71488e-05	10557
bin	8.80032e-05	10636
bin	8.88576e-05	10401
bin	8.9712e-05	10338
bin	9.05664e-05	10415
bin	9.14208e-05	10609
bin	9.22752e-05	10515
bin	9.31296e-05	10477
bin	9.3984e-05	10402
bin	9.48384e-05	10375
bin	9.56928e-05	10161
bin	9.65472e-05	9993
bin	9.74016e-05	9910
bin	9.8256e-05	9926
bin	9.91104e-05	9960
bin	9.99648e-05	9808
bin	0.0001008192	9838
bin	0.0001016736	9752
bin	0.000102528	9590
bin	0.0001033824	9401
bin	0.0001042368	9309
bin	0.0001050912	9341
bin	0.0001059456	9221
bin	0.0001068	9202
bin	0.0001076544	9221
bin	0.0001085088	9160
bin	0.0001093632	9158
bin	0.0001102176	9147
bin	0.000111072	9214
bin	0.0001119264	9069
bin	0.0001127808	8918
bin	0.0001136352	8949
bin	0.0001144896	8962
bin	0.000115344	8880
bin	0.0001161984	9024
bin	0.0001170528	9151
bin	0.0001179072	8943
bin	0.0001187616	8923
bin	0.000119616	8984
bin	0.0001204704	9238
bin	0.0001213248	8958
bin	0.0001221792	9108
bin	0.0001230336	9013
bin	0.000123888	9065
bin	0.0001247424	8953
bin	0.0001255968	8793
bin	0.0001264512	8898
bin	0.0001273056	8784
bin	0.00012816	8730
bin	0.0001290144	8861
bin	0.0001298688	8643
bin	0.0001307232	8511
bin	0.0001315776	8495
bin	0.000132432	8482
bin	0.0001332864	8439
bin	0.0001341408	8351
bin	0.0001349952	8306
bin	0.0001358496	8428
bin	0.000136704	8112
bin	0.0001375584	8161
bin	0.0001384128	8165
bin	0.0001392672	8240
bin	0.0001401216	8327
bin	0.000140976	8311
bin	0.0001418304	8239
bin	0.0001426848	8254
bin	0.0001435392	8222
bin	0.0001443936	8200
bin	0.000145248	8162
bin	0.0001461024	8289
bin	0.0001469568	8070
bin	0.0001478112	8056
bin	0.0001486656	7996
bin	0.00014952	8109
bin	0.0001503744	8044
bin	0.0001512288	8061
bin	0.0001520832	8171
bin	0.0001529376	8200
bin	0.000153792	8042
bin	0.0001546464	8134
bin	0.0001555008	8003
bin	0.0001563552	8094
bin	0.0001572096	8177
bin	0.000158064	7916
bin	0.0001589184	8085
bin	0.0001597728	7978
bin	0.0001606272	7790
bin	0.0001614816	7845
bin	0.000162336	7762
bin	0.0001631904	7868
bin	0.0001640448	7838
bin	0.0001648992	7914
bin	0.0001657536	7857
bin	0.000166608	7826
bin	0.0001674624	7799
bin	0.0001683168	7687
bin	0.0001691712	7655
bin	0.0001700256	7638
bin	0.00017088	7979
bin	0.0001717344	7706
bin	0.0001725888	7661
bin	0.0001734432	7703
bin	0.0001742976	7617
bin	0.000175152	7691
bin	0.0001760064	7700
bin	0.0001768608	7501
bin	0.0001777152	7718
bin	0.0001785696	7592
bin	0.000179424	7565
bin	0.0001802784	7636
bin	0.0001811328	7603
bin	0.0001819872	7613
bin	0.0001828416	7484
bin	0.000183696	7591
bin	0.0001845504	7545
bin	0.0001854048	7661
bin	0.0001862592	7534
bin	0.0001871136	7586
bin	0.000187968	7483
bin	0.0001888224	7465
bin	0.0001896768	7648
bin	0.0001905312	7552
bin	0.0001913856	7455
bin	0.00019224	7529
bin	0.0001930944	7310
bin	0.0001939488	7390
bin	0.0001948032	7311
bin	0.0001956576	7436
bin	0.000196512	7363
bin	0.0001973664	7492
bin	0.0001982208	7495
bin	0.0001990752	7442
bin	0.0001999296	7480
bin	0.000200784	7270
bin	0.0002016384	7316
bin	0.0002024928	7258
bin	0.0002033472	7347
bin	0.0002042016	7338
bin	0.000205056	7407
bin	0.0002059104	7325
bin	0.0002067648	7279
bin	0.0002076192	7345
bin	0.0002084736	7214
bin	0.000209328	7213
bin	0.0002101824	7224
bin	0.0002110368	7203
bin	0.0002118912	7445
bin	0.0002127456	7258
bin	0.0002136	7290
bin	0.0002144544	7253
bin	0.0002153088	7328
bin	0.0002161632	7452
bin	0.0002170176	7327
bin	0.000217872	7416
bin	0.0002187264	7303
bin	0.0002195808	7381
bin	0.0002204352	7380
bin	0.0002212896	7239
bin	0.000222144	7186
bin	0.0002229984	7223
bin	0.0002238528	7285
bin	0.0002247072	7367
bin	0.0002255616	7393
bin	0.000226416	7295
bin	0.0002272704	7311
bin	0.0002281248	7193
bin	0.0002289792	7180
bin	0.0002298336	7185
bin	0.000230688	7131
bin	0.0002315424	7254
bin	0.0002323968	7158
bin	0.0002332512	7049
bin	0.0002341056	7331
bin	0.00023496	7205
bin	0.0002358144	7150
bin	0.0002366688	7291
bin	0.0002375232	7221
bin	0.0002383776	7160
bin	0.000239232	7124
bin	0.0002400864	7067
bin	0.0002409408	7131
bin	0.0002417952	6964
bin	0.0002426496	6982
bin	0.000243504	6938
bin	0.0002443584	7010
bin	0.0002452128	6988
bin	0.0002460672	6873
bin	0.0002469216	7007
bin	0.000247776	6859
bin	0.0002486304	6962
bin	0.0002494848	6966
bin	0.0002503392	6942
bin	0.0002511936	6979
bin	0.000252048	6962
bin	0.0002529024	6994
bin	0.0002537568	6781
bin	0.0002546112	6953
bin	0.0002554656	6912
bin	0.00025632	6799
bin	0.0002571744	6841
bin	0.0002580288	6921
bin	0.0002588832	6923
bin	0.0002597376	6913
bin	0.000260592	6759
bin	0.0002614464	6869
bin	0.0002623008	6708
bin	0.0002631552	6829
bin	0.0002640096	6761
bin	0.000264864	6850
bin	0.0002657184	6873
bin	0.0002665728	6838
bin	0.0002674272	6838
bin	0.0002682816	6902
bin	0.000269136	6849
bin	0.0002699904	6816
bin	0.0002708448	6743
bin	0.0002716992	6831
bin	0.0002725536	6811
bin	0.000273408	6800
bin	0.0002742624	6852
bin	0.0002751168	6731
bin	0.0002759712	6706
bin	0.0002768256	6757
bin	0.00027768	6760
bin	0.0002785344	6694
bin	0.0002793888	6563
bin	0.0002802432	6754
bin	0.0002810976	6742
bin	0.000281952	6690
bin	0.0002828064	6641
bin	0.0002836608	6559
bin	0.0002845152	6782
bin	0.0002853696	6658
bin	0.000286224	6724
bin	0.0002870784	6421
bin	0.0002879328	6601
bin	0.0002887872	6460
bin	0.0002896416	6640
bin	0.000290496	6608
bin	0.0002913504	6687
bin	0.0002922048	6644
bin	0.0002930592	6655
bin	0.0002939136	6637
bin	0.000294768	6650
bin	0.0002956224	6540
bin	0.0002964768	6685
bin	0.0002973312	6592
bin	0.0002981856	6492
bin	0.00029904	6613
bin	0.0002998944	6621
bin	0.0003007488	6478
bin	0.0003016032	6682
bin	0.0003024576	6441
bin	0.000303312	6421
bin	0.0003041664	6561
bin	0.0003050208	6738
bin	0.0003058752	6426
bin	0.0003067296	6387
bin	0.000307584	6485
bin	0.0003084384	6448
bin	0.0003092928	6367
bin	0.0003101472	6505
bin	0.0003110016	6436
bin	0.000311856	6538
bin	0.0003127104	6472
bin	0.0003135648	6489
bin	0.0003144192	6555
bin	0.0003152736	6399
bin	0.000316128	6447
bin	0.0003169824	6567
bin	0.0003178368	6411
bin	0.0003186912	6430
bin	0.0003195456	6364
bin	0.0003204	6415
bin	0.0003212544	6400
bin	0.0003221088	6286
bin	0.0003229632	6390
bin	0.0003238176	6383
bin	0.000324672	6408
bin	0.0003255264	6323
bin	0.0003263808	6351
bin	0.0003272352	6294
bin	0.0003280896	6376
bin	0.000328944	6414
bin	0.0003297984	6487
bin	0.0003306528	6471
bin	0.0003315072	6535
bin	0.0003323616	6397
bin	0.000333216	6446
bin	0.0003340704	6430
bin	0.0003349248	6363
bin	0.0003357792	6477
bin	0.0003366336	6321
bin	0.000337488	6459
bin	0.0003383424	6513
bin	0.0003391968	6459
bin	0.0003400512	6467
bin	0.0003409056	6564
bin	0.00034176	6280
bin	0.0003426144	6432
bin	0.0003434688	6449
bin	0.0003443232	6428
bin	0.0003451776	6340
bin	0.000346032	6320
bin	0.0003468864	6330
bin	0.0003477408	6222
bin	0.0003485952	6345
bin	0.0003494496	6424
bin	0.000350304	6404
bin	0.0003511584	6464
bin	0.0003520128	6462
bin	0.0003528672	6404
bin	0.0003537216	6395
bin	0.000354576	6402
bin	0.0003554304	6409
bin	0.0003562848	6470
bin	0.0003571392	6339
bin	0.0003579936	6245
bin	0.000358848	6352
bin	0.0003597024	6326
bin	0.0003605568	6273
bin	0.0003614112	6309
bin	0.0003622656	6443
bin	0.00036312	6342
bin	0.0003639744	6212
bin	0.0003648288	6367
bin	0.0003656832	6353
bin	0.0003665376	6139
bin	0.000367392	6235
bin	0.0003682464	6396
bin	0.0003691008	6353
bin	0.0003699552	6382
bin	0.0003708096	6300
bin	0.000371664	6390
bin	0.0003725184	6257
bin	0.0003733728	6486
bin	0.0003742272	6320
bin	0.0003750816	6473
bin	0.000375936	6429
bin	0.0003767904	6251
bin	0.0003776448	6434
bin	0.0003784992	6352
bin	0.0003793536	6441
bin	0.000380208	6407
bin	0.0003810624	6390
bin	0.0003819168	6333
bin	0.0003827712	6194
bin	0.0003836256	6467
bin	0.00038448	6453
bin	0.0003853344	6400
bin	0.0003861888	6421
bin	0.0003870432	6240
bin	0.0003878976	6340
bin	0.000388752	6267
bin	0.0003896064	6415
bin	0.0003904608	6477
bin	0.0003913152	6321
bin	0.0003921696	6371
bin	0.000393024	6390
bin	0.0003938784	6241
bin	0.0003947328	6287
bin	0.0003955872	6360
bin	0.0003964416	6278
bin	0.000397296	6371
bin	0.0003981504	6459
bin	0.0003990048	6497
bin	0.0003998592	6498
bin	0.0004007136	6403
bin	0.000401568	6384
bin	0.0004024224	6366
bin	0.0004032768	6444
bin	0.0004041312	6525
bin	0.0004049856	6324
bin	0.00040584	6374
bin	0.0004066944	6304
bin	0.0004075488	6418
bin	0.0004084032	6341
bin	0.0004092576	6375
bin	0.000410112	6268
bin	0.0004109664	6341
bin	0.0004118208	6206
bin	0.0004126752	6325
bin	0.0004135296	6297
bin	0.000414384	6167
bin	0.0004152384	6356
bin	0.0004160928	6327
bin	0.0004169472	6447
bin	0.0004178016	6467
bin	0.000418656	6460
bin	0.0004195104	6408
bin	0.0004203648	6268
bin	0.0004212192	6408
bin	0.0004220736	6439
bin	0.000422928	6381
bin	0.0004237824	6492
bin	0.0004246368	6354
bin	0.0004254912	6488
bin	0.0004263456	6395
bin	0.0004272	1031434
