version 2
run Uniform-18-20120709-16:01:12-24721
attr alg 2
attr buf 8
attr configname Uniform
attr datetime 20120709-16:01:12
attr delta 1
attr experiment Uniform
attr ext true
attr inifile altro.ini
attr iterationvars "$buf=8, $ext=true, $ofedge=1, $delta=1, $alg=2"
attr iterationvars2 "$buf=8, $ext=true, $ofedge=1, $delta=1, $alg=2, $repetition=0"
attr measurement "$buf=8, $ext=true, $ofedge=1, $delta=1, $alg=2"
attr network Torus3d_bub
attr ofedge 1
attr processid 24721
attr repetition 0
attr replication #0
attr resultdir altro-results
attr runnumber 18
attr seedset 18

scalar . 	alg 	2
scalar . 	buf 	8
scalar . 	delta 	1
scalar . 	ofedge 	1
scalar Torus3d_bub.timer 	#endTime 	0.001825914997175
scalar Torus3d_bub.timer 	#totalHops 	89657552
scalar Torus3d_bub.timer 	#totalPacks 	6291456
scalar Torus3d_bub.timer 	#totalDerouted 	1982245
scalar Torus3d_bub.timer 	#totalOutFlanked 	0
scalar Torus3d_bub.timer 	#totalCQRed 	1982245
scalar Torus3d_bub.timer 	#LB 	0.000786432
scalar Torus3d_bub.timer 	#ratio 	0.43070570164369
statistic Torus3d_bub.timer 	"Hop Times"
field count 6289824
field mean 4.021126902339e-05
field stddev 4.1404021953503e-05
field sum 252.92180497377
field sqrsum 0.02095290649521
field min 4.03166666e-07
field max 0.001076655666664
bin	-INF	0
bin	0	0
bin	7.12e-08	0
bin	1.424e-07	0
bin	2.136e-07	0
bin	2.848e-07	0
bin	3.56e-07	26
bin	4.272e-07	594
bin	4.984e-07	1507
bin	5.696e-07	2452
bin	6.408e-07	3621
bin	7.12e-07	5078
bin	7.832e-07	6459
bin	8.544e-07	7901
bin	9.256e-07	9440
bin	9.968e-07	10865
bin	1.068e-06	12376
bin	1.1392e-06	13668
bin	1.2104e-06	15627
bin	1.2816e-06	17741
bin	1.3528e-06	19673
bin	1.424e-06	22357
bin	1.4952e-06	24877
bin	1.5664e-06	27072
bin	1.6376e-06	29286
bin	1.7088e-06	30296
bin	1.78e-06	30899
bin	1.8512e-06	31039
bin	1.9224e-06	30438
bin	1.9936e-06	30252
bin	2.0648e-06	28810
bin	2.136e-06	27526
bin	2.2072e-06	26296
bin	2.2784e-06	25145
bin	2.3496e-06	23595
bin	2.4208e-06	22259
bin	2.492e-06	21046
bin	2.5632e-06	20123
bin	2.6344e-06	18965
bin	2.7056e-06	17844
bin	2.7768e-06	16984
bin	2.848e-06	16399
bin	2.9192e-06	15265
bin	2.9904e-06	14709
bin	3.0616e-06	14093
bin	3.1328e-06	13588
bin	3.204e-06	13134
bin	3.2752e-06	12446
bin	3.3464e-06	11936
bin	3.4176e-06	11604
bin	3.4888e-06	11381
bin	3.56e-06	10948
bin	3.6312e-06	10338
bin	3.7024e-06	10165
bin	3.7736e-06	9962
bin	3.8448e-06	9479
bin	3.916e-06	9310
bin	3.9872e-06	9117
bin	4.0584e-06	8995
bin	4.1296e-06	8873
bin	4.2008e-06	8807
bin	4.272e-06	8522
bin	4.3432e-06	8464
bin	4.4144e-06	8356
bin	4.4856e-06	8124
bin	4.5568e-06	8088
bin	4.628e-06	7956
bin	4.6992e-06	7729
bin	4.7704e-06	7632
bin	4.8416e-06	7813
bin	4.9128e-06	7600
bin	4.984e-06	7415
bin	5.0552e-06	7348
bin	5.1264e-06	7131
bin	5.1976e-06	7138
bin	5.2688e-06	7126
bin	5.34e-06	7018
bin	5.4112e-06	6942
bin	5.4824e-06	6854
bin	5.5536e-06	6786
bin	5.6248e-06	6838
bin	5.696e-06	6800
bin	5.7672e-06	6676
bin	5.8384e-06	6675
bin	5.9096e-06	6574
bin	5.9808e-06	6589
bin	6.052e-06	6480
bin	6.1232e-06	6575
bin	6.1944e-06	6400
bin	6.2656e-06	6413
bin	6.3368e-06	6350
bin	6.408e-06	6405
bin	6.4792e-06	6334
bin	6.5504e-06	6415
bin	6.6216e-06	6278
bin	6.6928e-06	6426
bin	6.764e-06	6219
bin	6.8352e-06	6310
bin	6.9064e-06	6213
bin	6.9776e-06	6157
bin	7.0488e-06	6187
bin	7.12e-06	6192
bin	7.1912e-06	6177
bin	7.2624e-06	6080
bin	7.3336e-06	6144
bin	7.4048e-06	6092
bin	7.476e-06	6020
bin	7.5472e-06	6104
bin	7.6184e-06	5890
bin	7.6896e-06	6057
bin	7.7608e-06	5907
bin	7.832e-06	5918
bin	7.9032e-06	5944
bin	7.9744e-06	5772
bin	8.0456e-06	5967
bin	8.1168e-06	5884
bin	8.188e-06	5848
bin	8.2592e-06	5933
bin	8.3304e-06	5906
bin	8.4016e-06	5831
bin	8.4728e-06	5903
bin	8.544e-06	5836
bin	8.6152e-06	5719
bin	8.6864e-06	5803
bin	8.7576e-06	5920
bin	8.8288e-06	5813
bin	8.9e-06	5746
bin	8.9712e-06	5718
bin	9.0424e-06	5691
bin	9.1136e-06	5816
bin	9.1848e-06	5816
bin	9.256e-06	5814
bin	9.3272e-06	5792
bin	9.3984e-06	5779
bin	9.4696e-06	5688
bin	9.5408e-06	5633
bin	9.612e-06	5681
bin	9.6832e-06	5525
bin	9.7544e-06	5668
bin	9.8256e-06	5607
bin	9.8968e-06	5598
bin	9.968e-06	5790
bin	1.00392e-05	5679
bin	1.01104e-05	5653
bin	1.01816e-05	5573
bin	1.02528e-05	5636
bin	1.0324e-05	5776
bin	1.03952e-05	5570
bin	1.04664e-05	5431
bin	1.05376e-05	5710
bin	1.06088e-05	5643
bin	1.068e-05	5713
bin	1.07512e-05	5602
bin	1.08224e-05	5675
bin	1.08936e-05	5665
bin	1.09648e-05	5662
bin	1.1036e-05	5745
bin	1.11072e-05	5604
bin	1.11784e-05	5615
bin	1.12496e-05	5560
bin	1.13208e-05	5530
bin	1.1392e-05	5569
bin	1.14632e-05	5643
bin	1.15344e-05	5662
bin	1.16056e-05	5700
bin	1.16768e-05	5712
bin	1.1748e-05	5586
bin	1.18192e-05	5640
bin	1.18904e-05	5645
bin	1.19616e-05	5515
bin	1.20328e-05	5595
bin	1.2104e-05	5646
bin	1.21752e-05	5616
bin	1.22464e-05	5563
bin	1.23176e-05	5507
bin	1.23888e-05	5584
bin	1.246e-05	5536
bin	1.25312e-05	5558
bin	1.26024e-05	5563
bin	1.26736e-05	5501
bin	1.27448e-05	5456
bin	1.2816e-05	5725
bin	1.28872e-05	5622
bin	1.29584e-05	5613
bin	1.30296e-05	5619
bin	1.31008e-05	5503
bin	1.3172e-05	5448
bin	1.32432e-05	5602
bin	1.33144e-05	5459
bin	1.33856e-05	5528
bin	1.34568e-05	5680
bin	1.3528e-05	5440
bin	1.35992e-05	5494
bin	1.36704e-05	5551
bin	1.37416e-05	5535
bin	1.38128e-05	5398
bin	1.3884e-05	5403
bin	1.39552e-05	5507
bin	1.40264e-05	5454
bin	1.40976e-05	5424
bin	1.41688e-05	5603
bin	1.424e-05	5513
bin	1.43112e-05	5587
bin	1.43824e-05	5674
bin	1.44536e-05	5520
bin	1.45248e-05	5705
bin	1.4596e-05	5593
bin	1.46672e-05	5545
bin	1.47384e-05	5506
bin	1.48096e-05	5559
bin	1.48808e-05	5425
bin	1.4952e-05	5559
bin	1.50232e-05	5587
bin	1.50944e-05	5714
bin	1.51656e-05	5521
bin	1.52368e-05	5494
bin	1.5308e-05	5359
bin	1.53792e-05	5519
bin	1.54504e-05	5474
bin	1.55216e-05	5475
bin	1.55928e-05	5624
bin	1.5664e-05	5414
bin	1.57352e-05	5533
bin	1.58064e-05	5561
bin	1.58776e-05	5518
bin	1.59488e-05	5392
bin	1.602e-05	5395
bin	1.60912e-05	5507
bin	1.61624e-05	5587
bin	1.62336e-05	5578
bin	1.63048e-05	5534
bin	1.6376e-05	5542
bin	1.64472e-05	5494
bin	1.65184e-05	5414
bin	1.65896e-05	5611
bin	1.66608e-05	5479
bin	1.6732e-05	5425
bin	1.68032e-05	5463
bin	1.68744e-05	5516
bin	1.69456e-05	5424
bin	1.70168e-05	5431
bin	1.7088e-05	5561
bin	1.71592e-05	5644
bin	1.72304e-05	5550
bin	1.73016e-05	5530
bin	1.73728e-05	5654
bin	1.7444e-05	5587
bin	1.75152e-05	5531
bin	1.75864e-05	5555
bin	1.76576e-05	5668
bin	1.77288e-05	5739
bin	1.78e-05	5576
bin	1.78712e-05	5671
bin	1.79424e-05	5643
bin	1.80136e-05	5752
bin	1.80848e-05	5520
bin	1.8156e-05	5550
bin	1.82272e-05	5504
bin	1.82984e-05	5477
bin	1.83696e-05	5604
bin	1.84408e-05	5523
bin	1.8512e-05	5540
bin	1.85832e-05	5494
bin	1.86544e-05	5478
bin	1.87256e-05	5547
bin	1.87968e-05	5662
bin	1.8868e-05	5542
bin	1.89392e-05	5613
bin	1.90104e-05	5550
bin	1.90816e-05	5689
bin	1.91528e-05	5684
bin	1.9224e-05	5605
bin	1.92952e-05	5637
bin	1.93664e-05	5604
bin	1.94376e-05	5626
bin	1.95088e-05	5618
bin	1.958e-05	5756
bin	1.96512e-05	5678
bin	1.97224e-05	5806
bin	1.97936e-05	5690
bin	1.98648e-05	5532
bin	1.9936e-05	5655
bin	2.00072e-05	5588
bin	2.00784e-05	5596
bin	2.01496e-05	5623
bin	2.02208e-05	5789
bin	2.0292e-05	5512
bin	2.03632e-05	5569
bin	2.04344e-05	5510
bin	2.05056e-05	5552
bin	2.05768e-05	5625
bin	2.0648e-05	5558
bin	2.07192e-05	5484
bin	2.07904e-05	5621
bin	2.08616e-05	5542
bin	2.09328e-05	5548
bin	2.1004e-05	5511
bin	2.10752e-05	5592
bin	2.11464e-05	5550
bin	2.12176e-05	5450
bin	2.12888e-05	5545
bin	2.136e-05	5571
bin	2.14312e-05	5625
bin	2.15024e-05	5613
bin	2.15736e-05	5620
bin	2.16448e-05	5588
bin	2.1716e-05	5518
bin	2.17872e-05	5619
bin	2.18584e-05	5580
bin	2.19296e-05	5517
bin	2.20008e-05	5485
bin	2.2072e-05	5566
bin	2.21432e-05	5528
bin	2.22144e-05	5655
bin	2.22856e-05	5465
bin	2.23568e-05	5574
bin	2.2428e-05	5587
bin	2.24992e-05	5498
bin	2.25704e-05	5470
bin	2.26416e-05	5459
bin	2.27128e-05	5399
bin	2.2784e-05	5430
bin	2.28552e-05	5415
bin	2.29264e-05	5542
bin	2.29976e-05	5394
bin	2.30688e-05	5589
bin	2.314e-05	5609
bin	2.32112e-05	5541
bin	2.32824e-05	5489
bin	2.33536e-05	5502
bin	2.34248e-05	5573
bin	2.3496e-05	5323
bin	2.35672e-05	5499
bin	2.36384e-05	5553
bin	2.37096e-05	5488
bin	2.37808e-05	5546
bin	2.3852e-05	5509
bin	2.39232e-05	5350
bin	2.39944e-05	5433
bin	2.40656e-05	5461
bin	2.41368e-05	5445
bin	2.4208e-05	5492
bin	2.42792e-05	5417
bin	2.43504e-05	5500
bin	2.44216e-05	5497
bin	2.44928e-05	5397
bin	2.4564e-05	5477
bin	2.46352e-05	5497
bin	2.47064e-05	5193
bin	2.47776e-05	5317
bin	2.48488e-05	5552
bin	2.492e-05	5421
bin	2.49912e-05	5473
bin	2.50624e-05	5451
bin	2.51336e-05	5467
bin	2.52048e-05	5376
bin	2.5276e-05	5523
bin	2.53472e-05	5457
bin	2.54184e-05	5465
bin	2.54896e-05	5470
bin	2.55608e-05	5389
bin	2.5632e-05	5429
bin	2.57032e-05	5387
bin	2.57744e-05	5440
bin	2.58456e-05	5464
bin	2.59168e-05	5391
bin	2.5988e-05	5557
bin	2.60592e-05	5372
bin	2.61304e-05	5453
bin	2.62016e-05	5383
bin	2.62728e-05	5290
bin	2.6344e-05	5363
bin	2.64152e-05	5368
bin	2.64864e-05	5419
bin	2.65576e-05	5374
bin	2.66288e-05	5396
bin	2.67e-05	5378
bin	2.67712e-05	5530
bin	2.68424e-05	5420
bin	2.69136e-05	5450
bin	2.69848e-05	5418
bin	2.7056e-05	5494
bin	2.71272e-05	5417
bin	2.71984e-05	5321
bin	2.72696e-05	5392
bin	2.73408e-05	5551
bin	2.7412e-05	5363
bin	2.74832e-05	5427
bin	2.75544e-05	5403
bin	2.76256e-05	5490
bin	2.76968e-05	5492
bin	2.7768e-05	5460
bin	2.78392e-05	5462
bin	2.79104e-05	5391
bin	2.79816e-05	5320
bin	2.80528e-05	5350
bin	2.8124e-05	5539
bin	2.81952e-05	5367
bin	2.82664e-05	5341
bin	2.83376e-05	5287
bin	2.84088e-05	5318
bin	2.848e-05	5291
bin	2.85512e-05	5357
bin	2.86224e-05	5273
bin	2.86936e-05	5416
bin	2.87648e-05	5328
bin	2.8836e-05	5398
bin	2.89072e-05	5323
bin	2.89784e-05	5479
bin	2.90496e-05	5361
bin	2.91208e-05	5309
bin	2.9192e-05	5337
bin	2.92632e-05	5406
bin	2.93344e-05	5444
bin	2.94056e-05	5418
bin	2.94768e-05	5462
bin	2.9548e-05	5593
bin	2.96192e-05	5504
bin	2.96904e-05	5459
bin	2.97616e-05	5365
bin	2.98328e-05	5458
bin	2.9904e-05	5326
bin	2.99752e-05	5317
bin	3.00464e-05	5509
bin	3.01176e-05	5437
bin	3.01888e-05	5346
bin	3.026e-05	5368
bin	3.03312e-05	5268
bin	3.04024e-05	5186
bin	3.04736e-05	5324
bin	3.05448e-05	5354
bin	3.0616e-05	5546
bin	3.06872e-05	5379
bin	3.07584e-05	5267
bin	3.08296e-05	5395
bin	3.09008e-05	5278
bin	3.0972e-05	5356
bin	3.10432e-05	5406
bin	3.11144e-05	5436
bin	3.11856e-05	5499
bin	3.12568e-05	5331
bin	3.1328e-05	5299
bin	3.13992e-05	5333
bin	3.14704e-05	5337
bin	3.15416e-05	5333
bin	3.16128e-05	5300
bin	3.1684e-05	5351
bin	3.17552e-05	5440
bin	3.18264e-05	5381
bin	3.18976e-05	5348
bin	3.19688e-05	5303
bin	3.204e-05	5312
bin	3.21112e-05	5272
bin	3.21824e-05	5402
bin	3.22536e-05	5301
bin	3.23248e-05	5546
bin	3.2396e-05	5346
bin	3.24672e-05	5338
bin	3.25384e-05	5427
bin	3.26096e-05	5429
bin	3.26808e-05	5423
bin	3.2752e-05	5419
bin	3.28232e-05	5562
bin	3.28944e-05	5534
bin	3.29656e-05	5616
bin	3.30368e-05	5342
bin	3.3108e-05	5425
bin	3.31792e-05	5382
bin	3.32504e-05	5206
bin	3.33216e-05	5262
bin	3.33928e-05	5322
bin	3.3464e-05	5392
bin	3.35352e-05	5328
bin	3.36064e-05	5328
bin	3.36776e-05	5402
bin	3.37488e-05	5295
bin	3.382e-05	5166
bin	3.38912e-05	5298
bin	3.39624e-05	5347
bin	3.40336e-05	5314
bin	3.41048e-05	5286
bin	3.4176e-05	5343
bin	3.42472e-05	5429
bin	3.43184e-05	5389
bin	3.43896e-05	5549
bin	3.44608e-05	5446
bin	3.4532e-05	5402
bin	3.46032e-05	5436
bin	3.46744e-05	5341
bin	3.47456e-05	5507
bin	3.48168e-05	5444
bin	3.4888e-05	5421
bin	3.49592e-05	5460
bin	3.50304e-05	5471
bin	3.51016e-05	5375
bin	3.51728e-05	5535
bin	3.5244e-05	5633
bin	3.53152e-05	5591
bin	3.53864e-05	5379
bin	3.54576e-05	5478
bin	3.55288e-05	5419
bin	3.56e-05	2937202
statistic Torus3d_bub.timer 	"Life Times"
field count 6291456
field mean 0.00048804890913509
field stddev 0.00033747917133875
field sum 3070.5382376714
field sqrsum 2.2151204324314
field min 2.06666513e-07
field max 0.001715564333333
bin	-INF	0
bin	0	32
bin	8.544e-07	245
bin	1.7088e-06	751
bin	2.5632e-06	1564
bin	3.4176e-06	2452
bin	4.272e-06	3388
bin	5.1264e-06	4449
bin	5.9808e-06	5338
bin	6.8352e-06	6435
bin	7.6896e-06	7660
bin	8.544e-06	8950
bin	9.3984e-06	10067
bin	1.02528e-05	11316
bin	1.11072e-05	12036
bin	1.19616e-05	12779
bin	1.2816e-05	13782
bin	1.36704e-05	14595
bin	1.45248e-05	15567
bin	1.53792e-05	16385
bin	1.62336e-05	17389
bin	1.7088e-05	18243
bin	1.79424e-05	19463
bin	1.87968e-05	20342
bin	1.96512e-05	20944
bin	2.05056e-05	22160
bin	2.136e-05	23302
bin	2.22144e-05	24132
bin	2.30688e-05	24953
bin	2.39232e-05	25750
bin	2.47776e-05	26275
bin	2.5632e-05	26057
bin	2.64864e-05	25288
bin	2.73408e-05	24171
bin	2.81952e-05	22896
bin	2.90496e-05	21537
bin	2.9904e-05	20381
bin	3.07584e-05	19234
bin	3.16128e-05	18131
bin	3.24672e-05	16776
bin	3.33216e-05	15798
bin	3.4176e-05	14866
bin	3.50304e-05	13882
bin	3.58848e-05	12643
bin	3.67392e-05	12347
bin	3.75936e-05	11551
bin	3.8448e-05	11312
bin	3.93024e-05	10897
bin	4.01568e-05	10386
bin	4.10112e-05	10150
bin	4.18656e-05	9824
bin	4.272e-05	9406
bin	4.35744e-05	9129
bin	4.44288e-05	9123
bin	4.52832e-05	8999
bin	4.61376e-05	8949
bin	4.6992e-05	8630
bin	4.78464e-05	8840
bin	4.87008e-05	8652
bin	4.95552e-05	8570
bin	5.04096e-05	8542
bin	5.1264e-05	8503
bin	5.21184e-05	8143
bin	5.29728e-05	7977
bin	5.38272e-05	7779
bin	5.46816e-05	7637
bin	5.5536e-05	7379
bin	5.63904e-05	7040
bin	5.72448e-05	7074
bin	5.80992e-05	7009
bin	5.89536e-05	6891
bin	5.9808e-05	6501
bin	6.06624e-05	6329
bin	6.15168e-05	6343
bin	6.23712e-05	6296
bin	6.32256e-05	6100
bin	6.408e-05	6053
bin	6.49344e-05	6066
bin	6.57888e-05	5814
bin	6.66432e-05	5808
bin	6.74976e-05	5770
bin	6.8352e-05	5818
bin	6.92064e-05	5799
bin	7.00608e-05	5739
bin	7.09152e-05	5844
bin	7.17696e-05	5750
bin	7.2624e-05	5761
bin	7.34784e-05	5687
bin	7.43328e-05	5828
bin	7.51872e-05	5716
bin	7.60416e-05	5818
bin	7.6896e-05	5775
bin	7.77504e-05	5664
bin	7.86048e-05	5600
bin	7.94592e-05	5553
bin	8.03136e-05	5597
bin	8.1168e-05	5453
bin	8.20224e-05	5453
bin	8.28768e-05	5364
bin	8.37312e-05	5265
bin	8.45856e-05	5227
bin	8.544e-05	5240
bin	8.62944e-05	5062
bin	8.71488e-05	5164
bin	8.80032e-05	5113
bin	8.88576e-05	5214
bin	8.9712e-05	5145
bin	9.05664e-05	5066
bin	9.14208e-05	5024
bin	9.22752e-05	5170
bin	9.31296e-05	5081
bin	9.3984e-05	5023
bin	9.48384e-05	4975
bin	9.56928e-05	4981
bin	9.65472e-05	5061
bin	9.74016e-05	5137
bin	9.8256e-05	5142
bin	9.91104e-05	5192
bin	9.99648e-05	5199
bin	0.0001008192	5032
bin	0.0001016736	5114
bin	0.000102528	5230
bin	0.0001033824	5058
bin	0.0001042368	5145
bin	0.0001050912	5043
bin	0.0001059456	5138
bin	0.0001068	4984
bin	0.0001076544	4997
bin	0.0001085088	4929
bin	0.0001093632	4992
bin	0.0001102176	5028
bin	0.000111072	4930
bin	0.0001119264	4874
bin	0.0001127808	4776
bin	0.0001136352	4852
bin	0.0001144896	4817
bin	0.000115344	4754
bin	0.0001161984	4870
bin	0.0001170528	4902
bin	0.0001179072	4863
bin	0.0001187616	4977
bin	0.000119616	4900
bin	0.0001204704	4905
bin	0.0001213248	4831
bin	0.0001221792	4948
bin	0.0001230336	4919
bin	0.000123888	4724
bin	0.0001247424	4873
bin	0.0001255968	4748
bin	0.0001264512	4921
bin	0.0001273056	4838
bin	0.00012816	4940
bin	0.0001290144	4864
bin	0.0001298688	5030
bin	0.0001307232	4785
bin	0.0001315776	4858
bin	0.000132432	4746
bin	0.0001332864	4645
bin	0.0001341408	4649
bin	0.0001349952	4810
bin	0.0001358496	4810
bin	0.000136704	4743
bin	0.0001375584	4735
bin	0.0001384128	4756
bin	0.0001392672	4697
bin	0.0001401216	4719
bin	0.000140976	4803
bin	0.0001418304	4801
bin	0.0001426848	4785
bin	0.0001435392	4715
bin	0.0001443936	4856
bin	0.000145248	4677
bin	0.0001461024	4774
bin	0.0001469568	4697
bin	0.0001478112	4677
bin	0.0001486656	4569
bin	0.00014952	4691
bin	0.0001503744	4707
bin	0.0001512288	4796
bin	0.0001520832	4622
bin	0.0001529376	4653
bin	0.000153792	4792
bin	0.0001546464	4689
bin	0.0001555008	4690
bin	0.0001563552	4732
bin	0.0001572096	4666
bin	0.000158064	4796
bin	0.0001589184	4721
bin	0.0001597728	4724
bin	0.0001606272	4747
bin	0.0001614816	4718
bin	0.000162336	4654
bin	0.0001631904	4660
bin	0.0001640448	4736
bin	0.0001648992	4812
bin	0.0001657536	4839
bin	0.000166608	4654
bin	0.0001674624	4632
bin	0.0001683168	4571
bin	0.0001691712	4649
bin	0.0001700256	4638
bin	0.00017088	4597
bin	0.0001717344	4624
bin	0.0001725888	4589
bin	0.0001734432	4583
bin	0.0001742976	4591
bin	0.000175152	4625
bin	0.0001760064	4607
bin	0.0001768608	4554
bin	0.0001777152	4538
bin	0.0001785696	4565
bin	0.000179424	4576
bin	0.0001802784	4546
bin	0.0001811328	4510
bin	0.0001819872	4523
bin	0.0001828416	4442
bin	0.000183696	4509
bin	0.0001845504	4458
bin	0.0001854048	4575
bin	0.0001862592	4652
bin	0.0001871136	4543
bin	0.000187968	4502
bin	0.0001888224	4524
bin	0.0001896768	4574
bin	0.0001905312	4571
bin	0.0001913856	4520
bin	0.00019224	4637
bin	0.0001930944	4641
bin	0.0001939488	4646
bin	0.0001948032	4639
bin	0.0001956576	4644
bin	0.000196512	4630
bin	0.0001973664	4532
bin	0.0001982208	4599
bin	0.0001990752	4597
bin	0.0001999296	4678
bin	0.000200784	4609
bin	0.0002016384	4668
bin	0.0002024928	4613
bin	0.0002033472	4563
bin	0.0002042016	4414
bin	0.000205056	4665
bin	0.0002059104	4650
bin	0.0002067648	4633
bin	0.0002076192	4500
bin	0.0002084736	4607
bin	0.000209328	4514
bin	0.0002101824	4527
bin	0.0002110368	4554
bin	0.0002118912	4535
bin	0.0002127456	4560
bin	0.0002136	4587
bin	0.0002144544	4521
bin	0.0002153088	4558
bin	0.0002161632	4697
bin	0.0002170176	4666
bin	0.000217872	4603
bin	0.0002187264	4630
bin	0.0002195808	4499
bin	0.0002204352	4577
bin	0.0002212896	4531
bin	0.000222144	4660
bin	0.0002229984	4561
bin	0.0002238528	4573
bin	0.0002247072	4653
bin	0.0002255616	4672
bin	0.000226416	4627
bin	0.0002272704	4658
bin	0.0002281248	4516
bin	0.0002289792	4585
bin	0.0002298336	4451
bin	0.000230688	4574
bin	0.0002315424	4645
bin	0.0002323968	4637
bin	0.0002332512	4571
bin	0.0002341056	4488
bin	0.00023496	4501
bin	0.0002358144	4597
bin	0.0002366688	4596
bin	0.0002375232	4472
bin	0.0002383776	4558
bin	0.000239232	4600
bin	0.0002400864	4625
bin	0.0002409408	4660
bin	0.0002417952	4566
bin	0.0002426496	4677
bin	0.000243504	4759
bin	0.0002443584	4560
bin	0.0002452128	4531
bin	0.0002460672	4628
bin	0.0002469216	4564
bin	0.000247776	4564
bin	0.0002486304	4484
bin	0.0002494848	4491
bin	0.0002503392	4579
bin	0.0002511936	4506
bin	0.000252048	4493
bin	0.0002529024	4629
bin	0.0002537568	4646
bin	0.0002546112	4580
bin	0.0002554656	4547
bin	0.00025632	4782
bin	0.0002571744	4807
bin	0.0002580288	4688
bin	0.0002588832	4754
bin	0.0002597376	4660
bin	0.000260592	4585
bin	0.0002614464	4537
bin	0.0002623008	4666
bin	0.0002631552	4748
bin	0.0002640096	4601
bin	0.000264864	4529
bin	0.0002657184	4568
bin	0.0002665728	4541
bin	0.0002674272	4649
bin	0.0002682816	4721
bin	0.000269136	4614
bin	0.0002699904	4569
bin	0.0002708448	4618
bin	0.0002716992	4591
bin	0.0002725536	4529
bin	0.000273408	4631
bin	0.0002742624	4665
bin	0.0002751168	4593
bin	0.0002759712	4629
bin	0.0002768256	4658
bin	0.00027768	4718
bin	0.0002785344	4657
bin	0.0002793888	4596
bin	0.0002802432	4580
bin	0.0002810976	4779
bin	0.000281952	4672
bin	0.0002828064	4709
bin	0.0002836608	4893
bin	0.0002845152	4637
bin	0.0002853696	4678
bin	0.000286224	4703
bin	0.0002870784	4776
bin	0.0002879328	4654
bin	0.0002887872	4574
bin	0.0002896416	4655
bin	0.000290496	4688
bin	0.0002913504	4625
bin	0.0002922048	4649
bin	0.0002930592	4615
bin	0.0002939136	4706
bin	0.000294768	4629
bin	0.0002956224	4760
bin	0.0002964768	4622
bin	0.0002973312	4581
bin	0.0002981856	4742
bin	0.00029904	4604
bin	0.0002998944	4704
bin	0.0003007488	4681
bin	0.0003016032	4752
bin	0.0003024576	4750
bin	0.000303312	4640
bin	0.0003041664	4702
bin	0.0003050208	4645
bin	0.0003058752	4716
bin	0.0003067296	4705
bin	0.000307584	4741
bin	0.0003084384	4681
bin	0.0003092928	4728
bin	0.0003101472	4663
bin	0.0003110016	4534
bin	0.000311856	4633
bin	0.0003127104	4642
bin	0.0003135648	4653
bin	0.0003144192	4769
bin	0.0003152736	4714
bin	0.000316128	4587
bin	0.0003169824	4508
bin	0.0003178368	4582
bin	0.0003186912	4573
bin	0.0003195456	4479
bin	0.0003204	4696
bin	0.0003212544	4620
bin	0.0003221088	4547
bin	0.0003229632	4669
bin	0.0003238176	4685
bin	0.000324672	4712
bin	0.0003255264	4637
bin	0.0003263808	4631
bin	0.0003272352	4596
bin	0.0003280896	4661
bin	0.000328944	4560
bin	0.0003297984	4571
bin	0.0003306528	4652
bin	0.0003315072	4642
bin	0.0003323616	4682
bin	0.000333216	4686
bin	0.0003340704	4652
bin	0.0003349248	4758
bin	0.0003357792	4684
bin	0.0003366336	4613
bin	0.000337488	4771
bin	0.0003383424	4803
bin	0.0003391968	4783
bin	0.0003400512	4805
bin	0.0003409056	4765
bin	0.00034176	4615
bin	0.0003426144	4735
bin	0.0003434688	4794
bin	0.0003443232	4657
bin	0.0003451776	4651
bin	0.000346032	4729
bin	0.0003468864	4642
bin	0.0003477408	4571
bin	0.0003485952	4664
bin	0.0003494496	4529
bin	0.000350304	4574
bin	0.0003511584	4513
bin	0.0003520128	4378
bin	0.0003528672	4458
bin	0.0003537216	4558
bin	0.000354576	4492
bin	0.0003554304	4569
bin	0.0003562848	4558
bin	0.0003571392	4515
bin	0.0003579936	4551
bin	0.000358848	4690
bin	0.0003597024	4621
bin	0.0003605568	4590
bin	0.0003614112	4636
bin	0.0003622656	4588
bin	0.00036312	4577
bin	0.0003639744	4542
bin	0.0003648288	4614
bin	0.0003656832	4711
bin	0.0003665376	4669
bin	0.000367392	4553
bin	0.0003682464	4616
bin	0.0003691008	4472
bin	0.0003699552	4587
bin	0.0003708096	4593
bin	0.000371664	4512
bin	0.0003725184	4577
bin	0.0003733728	4530
bin	0.0003742272	4608
bin	0.0003750816	4615
bin	0.000375936	4678
bin	0.0003767904	4597
bin	0.0003776448	4573
bin	0.0003784992	4575
bin	0.0003793536	4503
bin	0.000380208	4664
bin	0.0003810624	4542
bin	0.0003819168	4617
bin	0.0003827712	4583
bin	0.0003836256	4574
bin	0.00038448	4568
bin	0.0003853344	4565
bin	0.0003861888	4547
bin	0.0003870432	4449
bin	0.0003878976	4490
bin	0.000388752	4611
bin	0.0003896064	4576
bin	0.0003904608	4602
bin	0.0003913152	4447
bin	0.0003921696	4555
bin	0.000393024	4434
bin	0.0003938784	4645
bin	0.0003947328	4504
bin	0.0003955872	4541
bin	0.0003964416	4540
bin	0.000397296	4485
bin	0.0003981504	4561
bin	0.0003990048	4493
bin	0.0003998592	4530
bin	0.0004007136	4543
bin	0.000401568	4539
bin	0.0004024224	4452
bin	0.0004032768	4511
bin	0.0004041312	4515
bin	0.0004049856	4519
bin	0.00040584	4467
bin	0.0004066944	4622
bin	0.0004075488	4431
bin	0.0004084032	4551
bin	0.0004092576	4588
bin	0.000410112	4609
bin	0.0004109664	4569
bin	0.0004118208	4446
bin	0.0004126752	4622
bin	0.0004135296	4705
bin	0.000414384	4525
bin	0.0004152384	4597
bin	0.0004160928	4600
bin	0.0004169472	4696
bin	0.0004178016	4655
bin	0.000418656	4601
bin	0.0004195104	4576
bin	0.0004203648	4487
bin	0.0004212192	4545
bin	0.0004220736	4508
bin	0.000422928	4514
bin	0.0004237824	4551
bin	0.0004246368	4620
bin	0.0004254912	4453
bin	0.0004263456	4592
bin	0.0004272	3366975
