version 2
run Uniform-16-20120709-15:53:41-24393
attr alg 0
attr buf 8
attr configname Uniform
attr datetime 20120709-15:53:41
attr delta 1
attr experiment Uniform
attr ext true
attr inifile altro.ini
attr iterationvars "$buf=8, $ext=true, $ofedge=1, $delta=1, $alg=0"
attr iterationvars2 "$buf=8, $ext=true, $ofedge=1, $delta=1, $alg=0, $repetition=0"
attr measurement "$buf=8, $ext=true, $ofedge=1, $delta=1, $alg=0"
attr network Torus3d_bub
attr ofedge 1
attr processid 24393
attr repetition 0
attr replication #0
attr resultdir altro-results
attr runnumber 16
attr seedset 16

scalar . 	alg 	0
scalar . 	buf 	8
scalar . 	delta 	1
scalar . 	ofedge 	1
scalar Torus3d_bub.timer 	#endTime 	0.00167622166407
scalar Torus3d_bub.timer 	#totalHops 	75439248
scalar Torus3d_bub.timer 	#totalPacks 	6291456
scalar Torus3d_bub.timer 	#totalDerouted 	0
scalar Torus3d_bub.timer 	#totalOutFlanked 	0
scalar Torus3d_bub.timer 	#totalCQRed 	0
scalar Torus3d_bub.timer 	#LB 	0.000786432
scalar Torus3d_bub.timer 	#ratio 	0.46916945226115
statistic Torus3d_bub.timer 	"Hop Times"
field count 6289632
field mean 3.6993790944532e-05
field stddev 3.666896320688e-05
field sum 232.67733132604
field sqrsum 0.01706473529664
field min 4.0618518e-07
field max 0.001193483666666
bin	-INF	0
bin	0	0
bin	7.12e-08	0
bin	1.424e-07	0
bin	2.136e-07	0
bin	2.848e-07	0
bin	3.56e-07	32
bin	4.272e-07	751
bin	4.984e-07	1848
bin	5.696e-07	2960
bin	6.408e-07	4462
bin	7.12e-07	5706
bin	7.832e-07	6922
bin	8.544e-07	8067
bin	9.256e-07	9072
bin	9.968e-07	10082
bin	1.068e-06	11391
bin	1.1392e-06	12352
bin	1.2104e-06	13684
bin	1.2816e-06	15103
bin	1.3528e-06	16744
bin	1.424e-06	18306
bin	1.4952e-06	19925
bin	1.5664e-06	21296
bin	1.6376e-06	22180
bin	1.7088e-06	23302
bin	1.78e-06	23824
bin	1.8512e-06	23972
bin	1.9224e-06	24011
bin	1.9936e-06	23729
bin	2.0648e-06	23293
bin	2.136e-06	22820
bin	2.2072e-06	21774
bin	2.2784e-06	21098
bin	2.3496e-06	20248
bin	2.4208e-06	19540
bin	2.492e-06	19022
bin	2.5632e-06	18069
bin	2.6344e-06	17507
bin	2.7056e-06	16622
bin	2.7768e-06	15990
bin	2.848e-06	15457
bin	2.9192e-06	14907
bin	2.9904e-06	14392
bin	3.0616e-06	13960
bin	3.1328e-06	13088
bin	3.204e-06	12914
bin	3.2752e-06	12637
bin	3.3464e-06	12103
bin	3.4176e-06	11955
bin	3.4888e-06	11692
bin	3.56e-06	11384
bin	3.6312e-06	11056
bin	3.7024e-06	10876
bin	3.7736e-06	10680
bin	3.8448e-06	10344
bin	3.916e-06	10267
bin	3.9872e-06	10173
bin	4.0584e-06	10143
bin	4.1296e-06	9766
bin	4.2008e-06	9491
bin	4.272e-06	9223
bin	4.3432e-06	9220
bin	4.4144e-06	9197
bin	4.4856e-06	8887
bin	4.5568e-06	8745
bin	4.628e-06	8504
bin	4.6992e-06	8727
bin	4.7704e-06	8692
bin	4.8416e-06	8441
bin	4.9128e-06	8420
bin	4.984e-06	8217
bin	5.0552e-06	8254
bin	5.1264e-06	8185
bin	5.1976e-06	8063
bin	5.2688e-06	8063
bin	5.34e-06	7964
bin	5.4112e-06	8014
bin	5.4824e-06	7915
bin	5.5536e-06	7828
bin	5.6248e-06	7762
bin	5.696e-06	7696
bin	5.7672e-06	7745
bin	5.8384e-06	7829
bin	5.9096e-06	7759
bin	5.9808e-06	7637
bin	6.052e-06	7663
bin	6.1232e-06	7483
bin	6.1944e-06	7606
bin	6.2656e-06	7558
bin	6.3368e-06	7441
bin	6.408e-06	7568
bin	6.4792e-06	7398
bin	6.5504e-06	7342
bin	6.6216e-06	7099
bin	6.6928e-06	7145
bin	6.764e-06	7200
bin	6.8352e-06	7211
bin	6.9064e-06	7034
bin	6.9776e-06	7114
bin	7.0488e-06	7036
bin	7.12e-06	7209
bin	7.1912e-06	7020
bin	7.2624e-06	7047
bin	7.3336e-06	7068
bin	7.4048e-06	7062
bin	7.476e-06	7034
bin	7.5472e-06	7052
bin	7.6184e-06	7057
bin	7.6896e-06	6931
bin	7.7608e-06	6947
bin	7.832e-06	6904
bin	7.9032e-06	6798
bin	7.9744e-06	6842
bin	8.0456e-06	6860
bin	8.1168e-06	6866
bin	8.188e-06	6841
bin	8.2592e-06	6784
bin	8.3304e-06	6815
bin	8.4016e-06	6891
bin	8.4728e-06	6865
bin	8.544e-06	6892
bin	8.6152e-06	6783
bin	8.6864e-06	6825
bin	8.7576e-06	6863
bin	8.8288e-06	6830
bin	8.9e-06	6760
bin	8.9712e-06	6707
bin	9.0424e-06	6827
bin	9.1136e-06	6793
bin	9.1848e-06	6689
bin	9.256e-06	6675
bin	9.3272e-06	6708
bin	9.3984e-06	6558
bin	9.4696e-06	6566
bin	9.5408e-06	6619
bin	9.612e-06	6581
bin	9.6832e-06	6704
bin	9.7544e-06	6570
bin	9.8256e-06	6777
bin	9.8968e-06	6682
bin	9.968e-06	6648
bin	1.00392e-05	6651
bin	1.01104e-05	6633
bin	1.01816e-05	6720
bin	1.02528e-05	6671
bin	1.0324e-05	6617
bin	1.03952e-05	6595
bin	1.04664e-05	6614
bin	1.05376e-05	6541
bin	1.06088e-05	6502
bin	1.068e-05	6590
bin	1.07512e-05	6587
bin	1.08224e-05	6627
bin	1.08936e-05	6577
bin	1.09648e-05	6425
bin	1.1036e-05	6598
bin	1.11072e-05	6640
bin	1.11784e-05	6622
bin	1.12496e-05	6523
bin	1.13208e-05	6491
bin	1.1392e-05	6573
bin	1.14632e-05	6516
bin	1.15344e-05	6498
bin	1.16056e-05	6541
bin	1.16768e-05	6589
bin	1.1748e-05	6440
bin	1.18192e-05	6560
bin	1.18904e-05	6553
bin	1.19616e-05	6642
bin	1.20328e-05	6476
bin	1.2104e-05	6609
bin	1.21752e-05	6652
bin	1.22464e-05	6396
bin	1.23176e-05	6465
bin	1.23888e-05	6610
bin	1.246e-05	6487
bin	1.25312e-05	6456
bin	1.26024e-05	6546
bin	1.26736e-05	6463
bin	1.27448e-05	6489
bin	1.2816e-05	6519
bin	1.28872e-05	6409
bin	1.29584e-05	6563
bin	1.30296e-05	6349
bin	1.31008e-05	6328
bin	1.3172e-05	6436
bin	1.32432e-05	6397
bin	1.33144e-05	6545
bin	1.33856e-05	6513
bin	1.34568e-05	6324
bin	1.3528e-05	6545
bin	1.35992e-05	6426
bin	1.36704e-05	6382
bin	1.37416e-05	6392
bin	1.38128e-05	6388
bin	1.3884e-05	6342
bin	1.39552e-05	6329
bin	1.40264e-05	6392
bin	1.40976e-05	6354
bin	1.41688e-05	6329
bin	1.424e-05	6420
bin	1.43112e-05	6264
bin	1.43824e-05	6321
bin	1.44536e-05	6386
bin	1.45248e-05	6273
bin	1.4596e-05	6348
bin	1.46672e-05	6292
bin	1.47384e-05	6386
bin	1.48096e-05	6218
bin	1.48808e-05	6307
bin	1.4952e-05	6264
bin	1.50232e-05	6223
bin	1.50944e-05	6232
bin	1.51656e-05	6301
bin	1.52368e-05	6362
bin	1.5308e-05	6358
bin	1.53792e-05	6349
bin	1.54504e-05	6335
bin	1.55216e-05	6393
bin	1.55928e-05	6342
bin	1.5664e-05	6398
bin	1.57352e-05	6379
bin	1.58064e-05	6450
bin	1.58776e-05	6347
bin	1.59488e-05	6579
bin	1.602e-05	6432
bin	1.60912e-05	6267
bin	1.61624e-05	6377
bin	1.62336e-05	6303
bin	1.63048e-05	6204
bin	1.6376e-05	6252
bin	1.64472e-05	6356
bin	1.65184e-05	6247
bin	1.65896e-05	6133
bin	1.66608e-05	6248
bin	1.6732e-05	6297
bin	1.68032e-05	6318
bin	1.68744e-05	6175
bin	1.69456e-05	6331
bin	1.70168e-05	6175
bin	1.7088e-05	6125
bin	1.71592e-05	6320
bin	1.72304e-05	6346
bin	1.73016e-05	6236
bin	1.73728e-05	6460
bin	1.7444e-05	6405
bin	1.75152e-05	6318
bin	1.75864e-05	6138
bin	1.76576e-05	6176
bin	1.77288e-05	6201
bin	1.78e-05	6265
bin	1.78712e-05	6287
bin	1.79424e-05	6350
bin	1.80136e-05	6153
bin	1.80848e-05	6234
bin	1.8156e-05	6221
bin	1.82272e-05	6220
bin	1.82984e-05	6167
bin	1.83696e-05	6191
bin	1.84408e-05	6095
bin	1.8512e-05	6190
bin	1.85832e-05	6243
bin	1.86544e-05	6144
bin	1.87256e-05	6122
bin	1.87968e-05	6149
bin	1.8868e-05	5999
bin	1.89392e-05	6158
bin	1.90104e-05	6171
bin	1.90816e-05	5969
bin	1.91528e-05	6101
bin	1.9224e-05	6075
bin	1.92952e-05	6077
bin	1.93664e-05	6148
bin	1.94376e-05	6192
bin	1.95088e-05	6177
bin	1.958e-05	6111
bin	1.96512e-05	6126
bin	1.97224e-05	6137
bin	1.97936e-05	6081
bin	1.98648e-05	6044
bin	1.9936e-05	6091
bin	2.00072e-05	6031
bin	2.00784e-05	6088
bin	2.01496e-05	6174
bin	2.02208e-05	6080
bin	2.0292e-05	6065
bin	2.03632e-05	6122
bin	2.04344e-05	5988
bin	2.05056e-05	6071
bin	2.05768e-05	6015
bin	2.0648e-05	6051
bin	2.07192e-05	6114
bin	2.07904e-05	5991
bin	2.08616e-05	6234
bin	2.09328e-05	6027
bin	2.1004e-05	6010
bin	2.10752e-05	6063
bin	2.11464e-05	6073
bin	2.12176e-05	6271
bin	2.12888e-05	6272
bin	2.136e-05	6107
bin	2.14312e-05	6196
bin	2.15024e-05	5965
bin	2.15736e-05	6034
bin	2.16448e-05	5960
bin	2.1716e-05	6079
bin	2.17872e-05	5996
bin	2.18584e-05	6004
bin	2.19296e-05	5992
bin	2.20008e-05	6026
bin	2.2072e-05	6071
bin	2.21432e-05	6033
bin	2.22144e-05	6008
bin	2.22856e-05	6075
bin	2.23568e-05	6198
bin	2.2428e-05	6139
bin	2.24992e-05	5993
bin	2.25704e-05	6117
bin	2.26416e-05	6123
bin	2.27128e-05	6126
bin	2.2784e-05	6161
bin	2.28552e-05	6234
bin	2.29264e-05	6122
bin	2.29976e-05	6145
bin	2.30688e-05	6168
bin	2.314e-05	6197
bin	2.32112e-05	6142
bin	2.32824e-05	6027
bin	2.33536e-05	6114
bin	2.34248e-05	6087
bin	2.3496e-05	6116
bin	2.35672e-05	6088
bin	2.36384e-05	6098
bin	2.37096e-05	5995
bin	2.37808e-05	6109
bin	2.3852e-05	6024
bin	2.39232e-05	6167
bin	2.39944e-05	5998
bin	2.40656e-05	5943
bin	2.41368e-05	6109
bin	2.4208e-05	6070
bin	2.42792e-05	6070
bin	2.43504e-05	5928
bin	2.44216e-05	6000
bin	2.44928e-05	5973
bin	2.4564e-05	5995
bin	2.46352e-05	5979
bin	2.47064e-05	6037
bin	2.47776e-05	6017
bin	2.48488e-05	6031
bin	2.492e-05	5835
bin	2.49912e-05	6096
bin	2.50624e-05	5936
bin	2.51336e-05	5753
bin	2.52048e-05	5903
bin	2.5276e-05	5976
bin	2.53472e-05	5971
bin	2.54184e-05	5972
bin	2.54896e-05	5958
bin	2.55608e-05	5979
bin	2.5632e-05	6027
bin	2.57032e-05	6121
bin	2.57744e-05	5984
bin	2.58456e-05	6049
bin	2.59168e-05	6051
bin	2.5988e-05	5897
bin	2.60592e-05	6023
bin	2.61304e-05	5942
bin	2.62016e-05	5889
bin	2.62728e-05	6045
bin	2.6344e-05	5904
bin	2.64152e-05	5931
bin	2.64864e-05	6001
bin	2.65576e-05	5964
bin	2.66288e-05	5965
bin	2.67e-05	5928
bin	2.67712e-05	5826
bin	2.68424e-05	5969
bin	2.69136e-05	5993
bin	2.69848e-05	6082
bin	2.7056e-05	5985
bin	2.71272e-05	5999
bin	2.71984e-05	6007
bin	2.72696e-05	6046
bin	2.73408e-05	5972
bin	2.7412e-05	5934
bin	2.74832e-05	5980
bin	2.75544e-05	5873
bin	2.76256e-05	5884
bin	2.76968e-05	6124
bin	2.7768e-05	6110
bin	2.78392e-05	6002
bin	2.79104e-05	6028
bin	2.79816e-05	5941
bin	2.80528e-05	6018
bin	2.8124e-05	6017
bin	2.81952e-05	6000
bin	2.82664e-05	5931
bin	2.83376e-05	5988
bin	2.84088e-05	5973
bin	2.848e-05	6060
bin	2.85512e-05	6105
bin	2.86224e-05	5994
bin	2.86936e-05	6043
bin	2.87648e-05	6037
bin	2.8836e-05	5914
bin	2.89072e-05	5956
bin	2.89784e-05	5850
bin	2.90496e-05	5816
bin	2.91208e-05	5783
bin	2.9192e-05	5824
bin	2.92632e-05	5900
bin	2.93344e-05	5950
bin	2.94056e-05	5757
bin	2.94768e-05	6023
bin	2.9548e-05	5941
bin	2.96192e-05	5945
bin	2.96904e-05	5898
bin	2.97616e-05	5928
bin	2.98328e-05	5900
bin	2.9904e-05	5819
bin	2.99752e-05	5955
bin	3.00464e-05	5776
bin	3.01176e-05	5827
bin	3.01888e-05	5767
bin	3.026e-05	5742
bin	3.03312e-05	5826
bin	3.04024e-05	5880
bin	3.04736e-05	5789
bin	3.05448e-05	5746
bin	3.0616e-05	5789
bin	3.06872e-05	5754
bin	3.07584e-05	5760
bin	3.08296e-05	5774
bin	3.09008e-05	5823
bin	3.0972e-05	5683
bin	3.10432e-05	5716
bin	3.11144e-05	5693
bin	3.11856e-05	5883
bin	3.12568e-05	5778
bin	3.1328e-05	5770
bin	3.13992e-05	5722
bin	3.14704e-05	5822
bin	3.15416e-05	5736
bin	3.16128e-05	5863
bin	3.1684e-05	5769
bin	3.17552e-05	5908
bin	3.18264e-05	5903
bin	3.18976e-05	5791
bin	3.19688e-05	5719
bin	3.204e-05	5782
bin	3.21112e-05	5801
bin	3.21824e-05	5859
bin	3.22536e-05	5847
bin	3.23248e-05	5835
bin	3.2396e-05	5887
bin	3.24672e-05	5840
bin	3.25384e-05	5935
bin	3.26096e-05	5763
bin	3.26808e-05	5839
bin	3.2752e-05	5688
bin	3.28232e-05	5814
bin	3.28944e-05	5783
bin	3.29656e-05	5875
bin	3.30368e-05	5949
bin	3.3108e-05	5954
bin	3.31792e-05	5813
bin	3.32504e-05	5857
bin	3.33216e-05	5970
bin	3.33928e-05	5950
bin	3.3464e-05	5803
bin	3.35352e-05	5722
bin	3.36064e-05	5839
bin	3.36776e-05	5796
bin	3.37488e-05	5735
bin	3.382e-05	5732
bin	3.38912e-05	5667
bin	3.39624e-05	5756
bin	3.40336e-05	5743
bin	3.41048e-05	5879
bin	3.4176e-05	5754
bin	3.42472e-05	5708
bin	3.43184e-05	5675
bin	3.43896e-05	5803
bin	3.44608e-05	5823
bin	3.4532e-05	5769
bin	3.46032e-05	5766
bin	3.46744e-05	5704
bin	3.47456e-05	5877
bin	3.48168e-05	5868
bin	3.4888e-05	5995
bin	3.49592e-05	5879
bin	3.50304e-05	5805
bin	3.51016e-05	5815
bin	3.51728e-05	5863
bin	3.5244e-05	5980
bin	3.53152e-05	6044
bin	3.53864e-05	5915
bin	3.54576e-05	5756
bin	3.55288e-05	5934
bin	3.56e-05	2727945
statistic Torus3d_bub.timer 	"Life Times"
field count 6291456
field mean 0.00038289676102231
field stddev 0.00026326465755213
field sum 2408.9781245144
field sqrsum 1.3584398454693
field min 2.06666513e-07
field max 0.001544815997615
bin	-INF	0
bin	0	31
bin	8.544e-07	268
bin	1.7088e-06	873
bin	2.5632e-06	1725
bin	3.4176e-06	2732
bin	4.272e-06	3809
bin	5.1264e-06	4859
bin	5.9808e-06	5845
bin	6.8352e-06	7007
bin	7.6896e-06	8131
bin	8.544e-06	9183
bin	9.3984e-06	10245
bin	1.02528e-05	10984
bin	1.11072e-05	11972
bin	1.19616e-05	12957
bin	1.2816e-05	13876
bin	1.36704e-05	14654
bin	1.45248e-05	15710
bin	1.53792e-05	16616
bin	1.62336e-05	17561
bin	1.7088e-05	18506
bin	1.79424e-05	19315
bin	1.87968e-05	20250
bin	1.96512e-05	21104
bin	2.05056e-05	22008
bin	2.136e-05	22767
bin	2.22144e-05	23367
bin	2.30688e-05	23795
bin	2.39232e-05	24305
bin	2.47776e-05	24216
bin	2.5632e-05	23497
bin	2.64864e-05	22276
bin	2.73408e-05	21364
bin	2.81952e-05	20245
bin	2.90496e-05	19366
bin	2.9904e-05	18237
bin	3.07584e-05	17160
bin	3.16128e-05	16295
bin	3.24672e-05	15276
bin	3.33216e-05	14501
bin	3.4176e-05	13994
bin	3.50304e-05	13310
bin	3.58848e-05	12266
bin	3.67392e-05	12128
bin	3.75936e-05	11649
bin	3.8448e-05	11268
bin	3.93024e-05	11037
bin	4.01568e-05	10848
bin	4.10112e-05	10435
bin	4.18656e-05	10227
bin	4.272e-05	10267
bin	4.35744e-05	9910
bin	4.44288e-05	9876
bin	4.52832e-05	9897
bin	4.61376e-05	9746
bin	4.6992e-05	9695
bin	4.78464e-05	9540
bin	4.87008e-05	9760
bin	4.95552e-05	9599
bin	5.04096e-05	9541
bin	5.1264e-05	9447
bin	5.21184e-05	9347
bin	5.29728e-05	9041
bin	5.38272e-05	8831
bin	5.46816e-05	8567
bin	5.5536e-05	8516
bin	5.63904e-05	8477
bin	5.72448e-05	8363
bin	5.80992e-05	8147
bin	5.89536e-05	8057
bin	5.9808e-05	8040
bin	6.06624e-05	7909
bin	6.15168e-05	7717
bin	6.23712e-05	7543
bin	6.32256e-05	7680
bin	6.408e-05	7466
bin	6.49344e-05	7576
bin	6.57888e-05	7519
bin	6.66432e-05	7467
bin	6.74976e-05	7389
bin	6.8352e-05	7496
bin	6.92064e-05	7357
bin	7.00608e-05	7379
bin	7.09152e-05	7434
bin	7.17696e-05	7463
bin	7.2624e-05	7418
bin	7.34784e-05	7357
bin	7.43328e-05	7374
bin	7.51872e-05	7379
bin	7.60416e-05	7184
bin	7.6896e-05	7181
bin	7.77504e-05	7132
bin	7.86048e-05	7297
bin	7.94592e-05	7082
bin	8.03136e-05	6948
bin	8.1168e-05	7056
bin	8.20224e-05	7268
bin	8.28768e-05	7123
bin	8.37312e-05	6916
bin	8.45856e-05	6964
bin	8.544e-05	6908
bin	8.62944e-05	6846
bin	8.71488e-05	6940
bin	8.80032e-05	6834
bin	8.88576e-05	6826
bin	8.9712e-05	6829
bin	9.05664e-05	6878
bin	9.14208e-05	6789
bin	9.22752e-05	6732
bin	9.31296e-05	6707
bin	9.3984e-05	6787
bin	9.48384e-05	6901
bin	9.56928e-05	6859
bin	9.65472e-05	6859
bin	9.74016e-05	6737
bin	9.8256e-05	6827
bin	9.91104e-05	6914
bin	9.99648e-05	6790
bin	0.0001008192	6863
bin	0.0001016736	6864
bin	0.000102528	7014
bin	0.0001033824	7002
bin	0.0001042368	6785
bin	0.0001050912	6785
bin	0.0001059456	6766
bin	0.0001068	6731
bin	0.0001076544	6698
bin	0.0001085088	6878
bin	0.0001093632	6681
bin	0.0001102176	6539
bin	0.000111072	6652
bin	0.0001119264	6596
bin	0.0001127808	6583
bin	0.0001136352	6720
bin	0.0001144896	6641
bin	0.000115344	6608
bin	0.0001161984	6680
bin	0.0001170528	6752
bin	0.0001179072	6812
bin	0.0001187616	6686
bin	0.000119616	6699
bin	0.0001204704	6621
bin	0.0001213248	6638
bin	0.0001221792	6717
bin	0.0001230336	6696
bin	0.000123888	6705
bin	0.0001247424	6735
bin	0.0001255968	6733
bin	0.0001264512	6673
bin	0.0001273056	6615
bin	0.00012816	6690
bin	0.0001290144	6659
bin	0.0001298688	6647
bin	0.0001307232	6507
bin	0.0001315776	6578
bin	0.000132432	6607
bin	0.0001332864	6627
bin	0.0001341408	6629
bin	0.0001349952	6720
bin	0.0001358496	6585
bin	0.000136704	6506
bin	0.0001375584	6646
bin	0.0001384128	6593
bin	0.0001392672	6650
bin	0.0001401216	6631
bin	0.000140976	6531
bin	0.0001418304	6638
bin	0.0001426848	6592
bin	0.0001435392	6468
bin	0.0001443936	6517
bin	0.000145248	6563
bin	0.0001461024	6479
bin	0.0001469568	6519
bin	0.0001478112	6443
bin	0.0001486656	6409
bin	0.00014952	6405
bin	0.0001503744	6365
bin	0.0001512288	6539
bin	0.0001520832	6369
bin	0.0001529376	6312
bin	0.000153792	6457
bin	0.0001546464	6473
bin	0.0001555008	6549
bin	0.0001563552	6564
bin	0.0001572096	6519
bin	0.000158064	6368
bin	0.0001589184	6315
bin	0.0001597728	6417
bin	0.0001606272	6362
bin	0.0001614816	6248
bin	0.000162336	6467
bin	0.0001631904	6382
bin	0.0001640448	6335
bin	0.0001648992	6373
bin	0.0001657536	6257
bin	0.000166608	6327
bin	0.0001674624	6401
bin	0.0001683168	6412
bin	0.0001691712	6389
bin	0.0001700256	6351
bin	0.00017088	6413
bin	0.0001717344	6340
bin	0.0001725888	6348
bin	0.0001734432	6409
bin	0.0001742976	6501
bin	0.000175152	6407
bin	0.0001760064	6522
bin	0.0001768608	6502
bin	0.0001777152	6439
bin	0.0001785696	6209
bin	0.000179424	6437
bin	0.0001802784	6361
bin	0.0001811328	6200
bin	0.0001819872	6453
bin	0.0001828416	6383
bin	0.000183696	6363
bin	0.0001845504	6281
bin	0.0001854048	6445
bin	0.0001862592	6523
bin	0.0001871136	6252
bin	0.000187968	6414
bin	0.0001888224	6366
bin	0.0001896768	6338
bin	0.0001905312	6435
bin	0.0001913856	6373
bin	0.00019224	6511
bin	0.0001930944	6464
bin	0.0001939488	6478
bin	0.0001948032	6498
bin	0.0001956576	6468
bin	0.000196512	6419
bin	0.0001973664	6442
bin	0.0001982208	6380
bin	0.0001990752	6369
bin	0.0001999296	6368
bin	0.000200784	6414
bin	0.0002016384	6491
bin	0.0002024928	6432
bin	0.0002033472	6294
bin	0.0002042016	6405
bin	0.000205056	6202
bin	0.0002059104	6321
bin	0.0002067648	6215
bin	0.0002076192	6346
bin	0.0002084736	6370
bin	0.000209328	6321
bin	0.0002101824	6369
bin	0.0002110368	6273
bin	0.0002118912	6227
bin	0.0002127456	6327
bin	0.0002136	6297
bin	0.0002144544	6288
bin	0.0002153088	6289
bin	0.0002161632	6168
bin	0.0002170176	6197
bin	0.000217872	6317
bin	0.0002187264	6148
bin	0.0002195808	6251
bin	0.0002204352	6379
bin	0.0002212896	6237
bin	0.000222144	6211
bin	0.0002229984	6267
bin	0.0002238528	6190
bin	0.0002247072	6211
bin	0.0002255616	6284
bin	0.000226416	6253
bin	0.0002272704	6374
bin	0.0002281248	6271
bin	0.0002289792	6234
bin	0.0002298336	6303
bin	0.000230688	6259
bin	0.0002315424	6247
bin	0.0002323968	6164
bin	0.0002332512	6308
bin	0.0002341056	6138
bin	0.00023496	6222
bin	0.0002358144	6227
bin	0.0002366688	6178
bin	0.0002375232	6200
bin	0.0002383776	6205
bin	0.000239232	6279
bin	0.0002400864	6261
bin	0.0002409408	6100
bin	0.0002417952	6206
bin	0.0002426496	6239
bin	0.000243504	6342
bin	0.0002443584	6290
bin	0.0002452128	6324
bin	0.0002460672	6346
bin	0.0002469216	6272
bin	0.000247776	6110
bin	0.0002486304	6181
bin	0.0002494848	6176
bin	0.0002503392	6195
bin	0.0002511936	6171
bin	0.000252048	6152
bin	0.0002529024	6140
bin	0.0002537568	6255
bin	0.0002546112	6238
bin	0.0002554656	6063
bin	0.00025632	6135
bin	0.0002571744	6113
bin	0.0002580288	6173
bin	0.0002588832	6015
bin	0.0002597376	6151
bin	0.000260592	6140
bin	0.0002614464	6165
bin	0.0002623008	6032
bin	0.0002631552	6002
bin	0.0002640096	5933
bin	0.000264864	6064
bin	0.0002657184	5985
bin	0.0002665728	6040
bin	0.0002674272	6083
bin	0.0002682816	6082
bin	0.000269136	6141
bin	0.0002699904	5976
bin	0.0002708448	6004
bin	0.0002716992	6159
bin	0.0002725536	6172
bin	0.000273408	6054
bin	0.0002742624	6162
bin	0.0002751168	6086
bin	0.0002759712	6121
bin	0.0002768256	6176
bin	0.00027768	6126
bin	0.0002785344	6068
bin	0.0002793888	6083
bin	0.0002802432	5995
bin	0.0002810976	5965
bin	0.000281952	5928
bin	0.0002828064	5935
bin	0.0002836608	6080
bin	0.0002845152	6007
bin	0.0002853696	6176
bin	0.000286224	5988
bin	0.0002870784	6154
bin	0.0002879328	6275
bin	0.0002887872	6090
bin	0.0002896416	6140
bin	0.000290496	6095
bin	0.0002913504	6095
bin	0.0002922048	6068
bin	0.0002930592	6171
bin	0.0002939136	6163
bin	0.000294768	6123
bin	0.0002956224	6196
bin	0.0002964768	6170
bin	0.0002973312	6258
bin	0.0002981856	6303
bin	0.00029904	6118
bin	0.0002998944	6229
bin	0.0003007488	6239
bin	0.0003016032	6117
bin	0.0003024576	6150
bin	0.000303312	6127
bin	0.0003041664	6172
bin	0.0003050208	6273
bin	0.0003058752	6203
bin	0.0003067296	6259
bin	0.000307584	6116
bin	0.0003084384	6088
bin	0.0003092928	6113
bin	0.0003101472	6061
bin	0.0003110016	6090
bin	0.000311856	6272
bin	0.0003127104	6336
bin	0.0003135648	6355
bin	0.0003144192	6261
bin	0.0003152736	6246
bin	0.000316128	6293
bin	0.0003169824	6345
bin	0.0003178368	6212
bin	0.0003186912	6158
bin	0.0003195456	6157
bin	0.0003204	6205
bin	0.0003212544	6073
bin	0.0003221088	6139
bin	0.0003229632	6221
bin	0.0003238176	6211
bin	0.000324672	6125
bin	0.0003255264	6177
bin	0.0003263808	6160
bin	0.0003272352	6236
bin	0.0003280896	6156
bin	0.000328944	6243
bin	0.0003297984	6245
bin	0.0003306528	6167
bin	0.0003315072	6156
bin	0.0003323616	6198
bin	0.000333216	6080
bin	0.0003340704	6250
bin	0.0003349248	6096
bin	0.0003357792	6004
bin	0.0003366336	6056
bin	0.000337488	5946
bin	0.0003383424	5991
bin	0.0003391968	5989
bin	0.0003400512	6127
bin	0.0003409056	5932
bin	0.00034176	6000
bin	0.0003426144	5954
bin	0.0003434688	5872
bin	0.0003443232	6010
bin	0.0003451776	5907
bin	0.000346032	5893
bin	0.0003468864	5798
bin	0.0003477408	5880
bin	0.0003485952	5768
bin	0.0003494496	5888
bin	0.000350304	5821
bin	0.0003511584	5820
bin	0.0003520128	5819
bin	0.0003528672	5959
bin	0.0003537216	5912
bin	0.000354576	5777
bin	0.0003554304	5941
bin	0.0003562848	5947
bin	0.0003571392	5770
bin	0.0003579936	5817
bin	0.000358848	5714
bin	0.0003597024	5777
bin	0.0003605568	5959
bin	0.0003614112	5909
bin	0.0003622656	5838
bin	0.00036312	5918
bin	0.0003639744	5770
bin	0.0003648288	5821
bin	0.0003656832	5841
bin	0.0003665376	5869
bin	0.000367392	5892
bin	0.0003682464	5902
bin	0.0003691008	5977
bin	0.0003699552	5926
bin	0.0003708096	5902
bin	0.000371664	5812
bin	0.0003725184	5731
bin	0.0003733728	5801
bin	0.0003742272	5703
bin	0.0003750816	5867
bin	0.000375936	5926
bin	0.0003767904	5963
bin	0.0003776448	5799
bin	0.0003784992	5899
bin	0.0003793536	5859
bin	0.000380208	6034
bin	0.0003810624	5954
bin	0.0003819168	6055
bin	0.0003827712	5924
bin	0.0003836256	6024
bin	0.00038448	6008
bin	0.0003853344	5925
bin	0.0003861888	5907
bin	0.0003870432	5913
bin	0.0003878976	5823
bin	0.000388752	5972
bin	0.0003896064	5731
bin	0.0003904608	5849
bin	0.0003913152	5814
bin	0.0003921696	5710
bin	0.000393024	5874
bin	0.0003938784	5756
bin	0.0003947328	5728
bin	0.0003955872	5695
bin	0.0003964416	5801
bin	0.000397296	5804
bin	0.0003981504	5726
bin	0.0003990048	5921
bin	0.0003998592	5889
bin	0.0004007136	5861
bin	0.000401568	5828
bin	0.0004024224	5762
bin	0.0004032768	5734
bin	0.0004041312	5752
bin	0.0004049856	5685
bin	0.00040584	5666
bin	0.0004066944	5729
bin	0.0004075488	5631
bin	0.0004084032	5633
bin	0.0004092576	5742
bin	0.000410112	5773
bin	0.0004109664	5754
bin	0.0004118208	5791
bin	0.0004126752	5748
bin	0.0004135296	5712
bin	0.000414384	5737
bin	0.0004152384	5635
bin	0.0004160928	5687
bin	0.0004169472	5723
bin	0.0004178016	5774
bin	0.000418656	5809
bin	0.0004195104	5763
bin	0.0004203648	5920
bin	0.0004212192	5781
bin	0.0004220736	5802
bin	0.000422928	5729
bin	0.0004237824	5713
bin	0.0004246368	5800
bin	0.0004254912	5680
bin	0.0004263456	5525
bin	0.0004272	2702739
