version 2
run Uniform-38-20120709-17:07:10-24753
attr alg 2
attr buf 8
attr configname Uniform
attr datetime 20120709-17:07:10
attr delta 1
attr experiment Uniform
attr ext true
attr inifile altro.ini
attr iterationvars "$buf=8, $ext=true, $ofedge=2, $delta=1, $alg=2"
attr iterationvars2 "$buf=8, $ext=true, $ofedge=2, $delta=1, $alg=2, $repetition=0"
attr measurement "$buf=8, $ext=true, $ofedge=2, $delta=1, $alg=2"
attr network Torus3d_bub
attr ofedge 2
attr processid 24753
attr repetition 0
attr replication #0
attr resultdir altro-results
attr runnumber 38
attr seedset 38

scalar . 	alg 	2
scalar . 	buf 	8
scalar . 	delta 	1
scalar . 	ofedge 	2
scalar Torus3d_bub.timer 	#endTime 	0.001825914997175
scalar Torus3d_bub.timer 	#totalHops 	89680190
scalar Torus3d_bub.timer 	#totalPacks 	6291456
scalar Torus3d_bub.timer 	#totalDerouted 	1977412
scalar Torus3d_bub.timer 	#totalOutFlanked 	0
scalar Torus3d_bub.timer 	#totalCQRed 	1977412
scalar Torus3d_bub.timer 	#LB 	0.000786432
scalar Torus3d_bub.timer 	#ratio 	0.43070570164369
statistic Torus3d_bub.timer 	"Hop Times"
field count 6289920
field mean 4.0062756005515e-05
field stddev 4.0888687233259e-05
field sum 251.99153025421
field sqrsum 0.020611494806983
field min 4.00518518e-07
field max 0.001095814666665
bin	-INF	0
bin	0	0
bin	7.12e-08	0
bin	1.424e-07	0
bin	2.136e-07	0
bin	2.848e-07	0
bin	3.56e-07	38
bin	4.272e-07	599
bin	4.984e-07	1500
bin	5.696e-07	2572
bin	6.408e-07	3643
bin	7.12e-07	5102
bin	7.832e-07	6554
bin	8.544e-07	7937
bin	9.256e-07	9330
bin	9.968e-07	10864
bin	1.068e-06	12038
bin	1.1392e-06	13701
bin	1.2104e-06	15669
bin	1.2816e-06	17807
bin	1.3528e-06	20065
bin	1.424e-06	22457
bin	1.4952e-06	25031
bin	1.5664e-06	27360
bin	1.6376e-06	29492
bin	1.7088e-06	30606
bin	1.78e-06	30974
bin	1.8512e-06	31435
bin	1.9224e-06	30777
bin	1.9936e-06	29907
bin	2.0648e-06	29086
bin	2.136e-06	27695
bin	2.2072e-06	26395
bin	2.2784e-06	24910
bin	2.3496e-06	23608
bin	2.4208e-06	22385
bin	2.492e-06	21166
bin	2.5632e-06	19805
bin	2.6344e-06	18793
bin	2.7056e-06	17841
bin	2.7768e-06	16996
bin	2.848e-06	16116
bin	2.9192e-06	15179
bin	2.9904e-06	14530
bin	3.0616e-06	13918
bin	3.1328e-06	13152
bin	3.204e-06	12674
bin	3.2752e-06	12166
bin	3.3464e-06	11760
bin	3.4176e-06	11187
bin	3.4888e-06	10982
bin	3.56e-06	10412
bin	3.6312e-06	10352
bin	3.7024e-06	9969
bin	3.7736e-06	9633
bin	3.8448e-06	9504
bin	3.916e-06	9208
bin	3.9872e-06	8853
bin	4.0584e-06	8606
bin	4.1296e-06	8686
bin	4.2008e-06	8445
bin	4.272e-06	8225
bin	4.3432e-06	7955
bin	4.4144e-06	7876
bin	4.4856e-06	7804
bin	4.5568e-06	7680
bin	4.628e-06	7640
bin	4.6992e-06	7481
bin	4.7704e-06	7410
bin	4.8416e-06	7331
bin	4.9128e-06	7269
bin	4.984e-06	7051
bin	5.0552e-06	7094
bin	5.1264e-06	7022
bin	5.1976e-06	6827
bin	5.2688e-06	6901
bin	5.34e-06	6807
bin	5.4112e-06	6724
bin	5.4824e-06	6591
bin	5.5536e-06	6539
bin	5.6248e-06	6505
bin	5.696e-06	6517
bin	5.7672e-06	6530
bin	5.8384e-06	6531
bin	5.9096e-06	6460
bin	5.9808e-06	6428
bin	6.052e-06	6450
bin	6.1232e-06	6371
bin	6.1944e-06	6302
bin	6.2656e-06	6304
bin	6.3368e-06	6239
bin	6.408e-06	6151
bin	6.4792e-06	6177
bin	6.5504e-06	6220
bin	6.6216e-06	6248
bin	6.6928e-06	6231
bin	6.764e-06	6287
bin	6.8352e-06	6095
bin	6.9064e-06	6100
bin	6.9776e-06	6142
bin	7.0488e-06	6182
bin	7.12e-06	6069
bin	7.1912e-06	6169
bin	7.2624e-06	6151
bin	7.3336e-06	6053
bin	7.4048e-06	6119
bin	7.476e-06	6057
bin	7.5472e-06	6115
bin	7.6184e-06	6118
bin	7.6896e-06	6106
bin	7.7608e-06	6056
bin	7.832e-06	6059
bin	7.9032e-06	5820
bin	7.9744e-06	5816
bin	8.0456e-06	5904
bin	8.1168e-06	5888
bin	8.188e-06	5966
bin	8.2592e-06	5951
bin	8.3304e-06	5747
bin	8.4016e-06	5765
bin	8.4728e-06	5825
bin	8.544e-06	6000
bin	8.6152e-06	5859
bin	8.6864e-06	5981
bin	8.7576e-06	5971
bin	8.8288e-06	6156
bin	8.9e-06	5971
bin	8.9712e-06	5975
bin	9.0424e-06	5919
bin	9.1136e-06	5796
bin	9.1848e-06	6034
bin	9.256e-06	6027
bin	9.3272e-06	5991
bin	9.3984e-06	5991
bin	9.4696e-06	5968
bin	9.5408e-06	5912
bin	9.612e-06	5950
bin	9.6832e-06	5901
bin	9.7544e-06	5861
bin	9.8256e-06	6006
bin	9.8968e-06	5822
bin	9.968e-06	5943
bin	1.00392e-05	5821
bin	1.01104e-05	5841
bin	1.01816e-05	5898
bin	1.02528e-05	5906
bin	1.0324e-05	5944
bin	1.03952e-05	5776
bin	1.04664e-05	5897
bin	1.05376e-05	5726
bin	1.06088e-05	5845
bin	1.068e-05	5941
bin	1.07512e-05	5822
bin	1.08224e-05	5701
bin	1.08936e-05	5729
bin	1.09648e-05	5810
bin	1.1036e-05	5695
bin	1.11072e-05	5689
bin	1.11784e-05	5714
bin	1.12496e-05	5635
bin	1.13208e-05	5699
bin	1.1392e-05	5774
bin	1.14632e-05	5767
bin	1.15344e-05	5711
bin	1.16056e-05	5745
bin	1.16768e-05	5743
bin	1.1748e-05	5757
bin	1.18192e-05	5864
bin	1.18904e-05	5894
bin	1.19616e-05	5721
bin	1.20328e-05	5719
bin	1.2104e-05	5622
bin	1.21752e-05	5713
bin	1.22464e-05	5625
bin	1.23176e-05	5643
bin	1.23888e-05	5775
bin	1.246e-05	5600
bin	1.25312e-05	5736
bin	1.26024e-05	5623
bin	1.26736e-05	5703
bin	1.27448e-05	5697
bin	1.2816e-05	5648
bin	1.28872e-05	5587
bin	1.29584e-05	5592
bin	1.30296e-05	5730
bin	1.31008e-05	5641
bin	1.3172e-05	5482
bin	1.32432e-05	5707
bin	1.33144e-05	5686
bin	1.33856e-05	5691
bin	1.34568e-05	5630
bin	1.3528e-05	5708
bin	1.35992e-05	5617
bin	1.36704e-05	5691
bin	1.37416e-05	5672
bin	1.38128e-05	5561
bin	1.3884e-05	5556
bin	1.39552e-05	5753
bin	1.40264e-05	5639
bin	1.40976e-05	5705
bin	1.41688e-05	5666
bin	1.424e-05	5527
bin	1.43112e-05	5510
bin	1.43824e-05	5620
bin	1.44536e-05	5603
bin	1.45248e-05	5646
bin	1.4596e-05	5471
bin	1.46672e-05	5590
bin	1.47384e-05	5678
bin	1.48096e-05	5539
bin	1.48808e-05	5643
bin	1.4952e-05	5688
bin	1.50232e-05	5635
bin	1.50944e-05	5595
bin	1.51656e-05	5644
bin	1.52368e-05	5653
bin	1.5308e-05	5492
bin	1.53792e-05	5459
bin	1.54504e-05	5644
bin	1.55216e-05	5568
bin	1.55928e-05	5556
bin	1.5664e-05	5564
bin	1.57352e-05	5583
bin	1.58064e-05	5655
bin	1.58776e-05	5530
bin	1.59488e-05	5606
bin	1.602e-05	5642
bin	1.60912e-05	5547
bin	1.61624e-05	5614
bin	1.62336e-05	5503
bin	1.63048e-05	5470
bin	1.6376e-05	5433
bin	1.64472e-05	5630
bin	1.65184e-05	5465
bin	1.65896e-05	5436
bin	1.66608e-05	5367
bin	1.6732e-05	5540
bin	1.68032e-05	5515
bin	1.68744e-05	5579
bin	1.69456e-05	5557
bin	1.70168e-05	5353
bin	1.7088e-05	5537
bin	1.71592e-05	5577
bin	1.72304e-05	5595
bin	1.73016e-05	5479
bin	1.73728e-05	5461
bin	1.7444e-05	5588
bin	1.75152e-05	5533
bin	1.75864e-05	5665
bin	1.76576e-05	5609
bin	1.77288e-05	5570
bin	1.78e-05	5564
bin	1.78712e-05	5460
bin	1.79424e-05	5538
bin	1.80136e-05	5441
bin	1.80848e-05	5511
bin	1.8156e-05	5474
bin	1.82272e-05	5426
bin	1.82984e-05	5544
bin	1.83696e-05	5412
bin	1.84408e-05	5610
bin	1.8512e-05	5507
bin	1.85832e-05	5574
bin	1.86544e-05	5523
bin	1.87256e-05	5548
bin	1.87968e-05	5478
bin	1.8868e-05	5508
bin	1.89392e-05	5483
bin	1.90104e-05	5473
bin	1.90816e-05	5463
bin	1.91528e-05	5527
bin	1.9224e-05	5502
bin	1.92952e-05	5552
bin	1.93664e-05	5523
bin	1.94376e-05	5510
bin	1.95088e-05	5429
bin	1.958e-05	5431
bin	1.96512e-05	5613
bin	1.97224e-05	5411
bin	1.97936e-05	5681
bin	1.98648e-05	5489
bin	1.9936e-05	5577
bin	2.00072e-05	5530
bin	2.00784e-05	5613
bin	2.01496e-05	5409
bin	2.02208e-05	5511
bin	2.0292e-05	5573
bin	2.03632e-05	5473
bin	2.04344e-05	5475
bin	2.05056e-05	5519
bin	2.05768e-05	5561
bin	2.0648e-05	5480
bin	2.07192e-05	5571
bin	2.07904e-05	5461
bin	2.08616e-05	5412
bin	2.09328e-05	5483
bin	2.1004e-05	5426
bin	2.10752e-05	5494
bin	2.11464e-05	5408
bin	2.12176e-05	5412
bin	2.12888e-05	5360
bin	2.136e-05	5355
bin	2.14312e-05	5360
bin	2.15024e-05	5361
bin	2.15736e-05	5362
bin	2.16448e-05	5457
bin	2.1716e-05	5467
bin	2.17872e-05	5385
bin	2.18584e-05	5426
bin	2.19296e-05	5453
bin	2.20008e-05	5437
bin	2.2072e-05	5379
bin	2.21432e-05	5544
bin	2.22144e-05	5420
bin	2.22856e-05	5336
bin	2.23568e-05	5408
bin	2.2428e-05	5532
bin	2.24992e-05	5456
bin	2.25704e-05	5501
bin	2.26416e-05	5299
bin	2.27128e-05	5413
bin	2.2784e-05	5308
bin	2.28552e-05	5313
bin	2.29264e-05	5493
bin	2.29976e-05	5464
bin	2.30688e-05	5391
bin	2.314e-05	5404
bin	2.32112e-05	5300
bin	2.32824e-05	5439
bin	2.33536e-05	5344
bin	2.34248e-05	5437
bin	2.3496e-05	5377
bin	2.35672e-05	5318
bin	2.36384e-05	5279
bin	2.37096e-05	5445
bin	2.37808e-05	5265
bin	2.3852e-05	5415
bin	2.39232e-05	5322
bin	2.39944e-05	5418
bin	2.40656e-05	5529
bin	2.41368e-05	5511
bin	2.4208e-05	5351
bin	2.42792e-05	5225
bin	2.43504e-05	5329
bin	2.44216e-05	5404
bin	2.44928e-05	5367
bin	2.4564e-05	5368
bin	2.46352e-05	5410
bin	2.47064e-05	5327
bin	2.47776e-05	5291
bin	2.48488e-05	5443
bin	2.492e-05	5465
bin	2.49912e-05	5429
bin	2.50624e-05	5411
bin	2.51336e-05	5294
bin	2.52048e-05	5503
bin	2.5276e-05	5382
bin	2.53472e-05	5402
bin	2.54184e-05	5354
bin	2.54896e-05	5341
bin	2.55608e-05	5405
bin	2.5632e-05	5326
bin	2.57032e-05	5351
bin	2.57744e-05	5316
bin	2.58456e-05	5506
bin	2.59168e-05	5486
bin	2.5988e-05	5306
bin	2.60592e-05	5226
bin	2.61304e-05	5357
bin	2.62016e-05	5314
bin	2.62728e-05	5256
bin	2.6344e-05	5145
bin	2.64152e-05	5258
bin	2.64864e-05	5354
bin	2.65576e-05	5350
bin	2.66288e-05	5342
bin	2.67e-05	5270
bin	2.67712e-05	5296
bin	2.68424e-05	5285
bin	2.69136e-05	5304
bin	2.69848e-05	5274
bin	2.7056e-05	5381
bin	2.71272e-05	5427
bin	2.71984e-05	5430
bin	2.72696e-05	5490
bin	2.73408e-05	5393
bin	2.7412e-05	5410
bin	2.74832e-05	5474
bin	2.75544e-05	5389
bin	2.76256e-05	5290
bin	2.76968e-05	5304
bin	2.7768e-05	5481
bin	2.78392e-05	5332
bin	2.79104e-05	5353
bin	2.79816e-05	5446
bin	2.80528e-05	5348
bin	2.8124e-05	5432
bin	2.81952e-05	5461
bin	2.82664e-05	5375
bin	2.83376e-05	5472
bin	2.84088e-05	5415
bin	2.848e-05	5436
bin	2.85512e-05	5469
bin	2.86224e-05	5255
bin	2.86936e-05	5460
bin	2.87648e-05	5511
bin	2.8836e-05	5396
bin	2.89072e-05	5541
bin	2.89784e-05	5376
bin	2.90496e-05	5348
bin	2.91208e-05	5388
bin	2.9192e-05	5419
bin	2.92632e-05	5314
bin	2.93344e-05	5316
bin	2.94056e-05	5400
bin	2.94768e-05	5402
bin	2.9548e-05	5357
bin	2.96192e-05	5318
bin	2.96904e-05	5394
bin	2.97616e-05	5364
bin	2.98328e-05	5455
bin	2.9904e-05	5488
bin	2.99752e-05	5473
bin	3.00464e-05	5411
bin	3.01176e-05	5381
bin	3.01888e-05	5317
bin	3.026e-05	5325
bin	3.03312e-05	5250
bin	3.04024e-05	5296
bin	3.04736e-05	5350
bin	3.05448e-05	5230
bin	3.0616e-05	5169
bin	3.06872e-05	5291
bin	3.07584e-05	5372
bin	3.08296e-05	5312
bin	3.09008e-05	5322
bin	3.0972e-05	5370
bin	3.10432e-05	5503
bin	3.11144e-05	5472
bin	3.11856e-05	5436
bin	3.12568e-05	5374
bin	3.1328e-05	5431
bin	3.13992e-05	5379
bin	3.14704e-05	5236
bin	3.15416e-05	5359
bin	3.16128e-05	5364
bin	3.1684e-05	5200
bin	3.17552e-05	5364
bin	3.18264e-05	5358
bin	3.18976e-05	5332
bin	3.19688e-05	5377
bin	3.204e-05	5340
bin	3.21112e-05	5459
bin	3.21824e-05	5335
bin	3.22536e-05	5368
bin	3.23248e-05	5364
bin	3.2396e-05	5417
bin	3.24672e-05	5297
bin	3.25384e-05	5327
bin	3.26096e-05	5272
bin	3.26808e-05	5292
bin	3.2752e-05	5513
bin	3.28232e-05	5430
bin	3.28944e-05	5375
bin	3.29656e-05	5413
bin	3.30368e-05	5503
bin	3.3108e-05	5431
bin	3.31792e-05	5493
bin	3.32504e-05	5398
bin	3.33216e-05	5357
bin	3.33928e-05	5332
bin	3.3464e-05	5297
bin	3.35352e-05	5366
bin	3.36064e-05	5468
bin	3.36776e-05	5384
bin	3.37488e-05	5429
bin	3.382e-05	5357
bin	3.38912e-05	5487
bin	3.39624e-05	5452
bin	3.40336e-05	5334
bin	3.41048e-05	5327
bin	3.4176e-05	5288
bin	3.42472e-05	5316
bin	3.43184e-05	5336
bin	3.43896e-05	5308
bin	3.44608e-05	5398
bin	3.4532e-05	5484
bin	3.46032e-05	5334
bin	3.46744e-05	5366
bin	3.47456e-05	5412
bin	3.48168e-05	5421
bin	3.4888e-05	5477
bin	3.49592e-05	5282
bin	3.50304e-05	5443
bin	3.51016e-05	5495
bin	3.51728e-05	5457
bin	3.5244e-05	5529
bin	3.53152e-05	5344
bin	3.53864e-05	5400
bin	3.54576e-05	5533
bin	3.55288e-05	5414
bin	3.56e-05	2948401
statistic Torus3d_bub.timer 	"Life Times"
field count 6291456
field mean 0.00048697447949462
field stddev 0.00033507005794645
field sum 3063.7785108633
field sqrsum 2.1983358273684
field min 2.06666513e-07
field max 0.001709691666666
bin	-INF	0
bin	0	40
bin	8.544e-07	241
bin	1.7088e-06	774
bin	2.5632e-06	1541
bin	3.4176e-06	2453
bin	4.272e-06	3338
bin	5.1264e-06	4399
bin	5.9808e-06	5372
bin	6.8352e-06	6319
bin	7.6896e-06	7657
bin	8.544e-06	8875
bin	9.3984e-06	10039
bin	1.02528e-05	11010
bin	1.11072e-05	11825
bin	1.19616e-05	12775
bin	1.2816e-05	13729
bin	1.36704e-05	14580
bin	1.45248e-05	15625
bin	1.53792e-05	16492
bin	1.62336e-05	17444
bin	1.7088e-05	18210
bin	1.79424e-05	19404
bin	1.87968e-05	20488
bin	1.96512e-05	21474
bin	2.05056e-05	22264
bin	2.136e-05	23394
bin	2.22144e-05	24362
bin	2.30688e-05	25014
bin	2.39232e-05	26089
bin	2.47776e-05	26561
bin	2.5632e-05	26044
bin	2.64864e-05	25535
bin	2.73408e-05	24376
bin	2.81952e-05	23308
bin	2.90496e-05	21961
bin	2.9904e-05	20503
bin	3.07584e-05	19221
bin	3.16128e-05	17900
bin	3.24672e-05	16672
bin	3.33216e-05	15697
bin	3.4176e-05	14493
bin	3.50304e-05	13697
bin	3.58848e-05	12621
bin	3.67392e-05	12010
bin	3.75936e-05	11157
bin	3.8448e-05	10717
bin	3.93024e-05	10420
bin	4.01568e-05	10185
bin	4.10112e-05	9746
bin	4.18656e-05	9693
bin	4.272e-05	9261
bin	4.35744e-05	9246
bin	4.44288e-05	8993
bin	4.52832e-05	8831
bin	4.61376e-05	8818
bin	4.6992e-05	8696
bin	4.78464e-05	8569
bin	4.87008e-05	8394
bin	4.95552e-05	8409
bin	5.04096e-05	8499
bin	5.1264e-05	8270
bin	5.21184e-05	7899
bin	5.29728e-05	7697
bin	5.38272e-05	7540
bin	5.46816e-05	7456
bin	5.5536e-05	7056
bin	5.63904e-05	7115
bin	5.72448e-05	6813
bin	5.80992e-05	6703
bin	5.89536e-05	6486
bin	5.9808e-05	6418
bin	6.06624e-05	6266
bin	6.15168e-05	6208
bin	6.23712e-05	6069
bin	6.32256e-05	5880
bin	6.408e-05	5800
bin	6.49344e-05	5869
bin	6.57888e-05	5726
bin	6.66432e-05	5739
bin	6.74976e-05	5677
bin	6.8352e-05	5676
bin	6.92064e-05	5588
bin	7.00608e-05	5608
bin	7.09152e-05	5646
bin	7.17696e-05	5658
bin	7.2624e-05	5492
bin	7.34784e-05	5597
bin	7.43328e-05	5605
bin	7.51872e-05	5594
bin	7.60416e-05	5420
bin	7.6896e-05	5452
bin	7.77504e-05	5450
bin	7.86048e-05	5310
bin	7.94592e-05	5375
bin	8.03136e-05	5265
bin	8.1168e-05	5332
bin	8.20224e-05	5257
bin	8.28768e-05	5122
bin	8.37312e-05	5237
bin	8.45856e-05	5026
bin	8.544e-05	4991
bin	8.62944e-05	4836
bin	8.71488e-05	5083
bin	8.80032e-05	4963
bin	8.88576e-05	4901
bin	8.9712e-05	4929
bin	9.05664e-05	5025
bin	9.14208e-05	4982
bin	9.22752e-05	5041
bin	9.31296e-05	5020
bin	9.3984e-05	4950
bin	9.48384e-05	5028
bin	9.56928e-05	4909
bin	9.65472e-05	4910
bin	9.74016e-05	4831
bin	9.8256e-05	4866
bin	9.91104e-05	4869
bin	9.99648e-05	4799
bin	0.0001008192	4963
bin	0.0001016736	4950
bin	0.000102528	4916
bin	0.0001033824	4794
bin	0.0001042368	4807
bin	0.0001050912	4827
bin	0.0001059456	4858
bin	0.0001068	4829
bin	0.0001076544	4732
bin	0.0001085088	4883
bin	0.0001093632	4998
bin	0.0001102176	4813
bin	0.000111072	4762
bin	0.0001119264	4846
bin	0.0001127808	4891
bin	0.0001136352	4809
bin	0.0001144896	4887
bin	0.000115344	4835
bin	0.0001161984	4817
bin	0.0001170528	4743
bin	0.0001179072	4717
bin	0.0001187616	4701
bin	0.000119616	4845
bin	0.0001204704	4883
bin	0.0001213248	4881
bin	0.0001221792	4817
bin	0.0001230336	4942
bin	0.000123888	4810
bin	0.0001247424	4840
bin	0.0001255968	4776
bin	0.0001264512	4749
bin	0.0001273056	4863
bin	0.00012816	4802
bin	0.0001290144	4779
bin	0.0001298688	4722
bin	0.0001307232	4773
bin	0.0001315776	4842
bin	0.000132432	4892
bin	0.0001332864	4780
bin	0.0001341408	4696
bin	0.0001349952	4808
bin	0.0001358496	4849
bin	0.000136704	4765
bin	0.0001375584	4749
bin	0.0001384128	4785
bin	0.0001392672	4828
bin	0.0001401216	4977
bin	0.000140976	4952
bin	0.0001418304	4954
bin	0.0001426848	4876
bin	0.0001435392	4864
bin	0.0001443936	4831
bin	0.000145248	4841
bin	0.0001461024	4678
bin	0.0001469568	4883
bin	0.0001478112	4949
bin	0.0001486656	4861
bin	0.00014952	4865
bin	0.0001503744	4745
bin	0.0001512288	4799
bin	0.0001520832	4905
bin	0.0001529376	4816
bin	0.000153792	4865
bin	0.0001546464	4886
bin	0.0001555008	4837
bin	0.0001563552	4900
bin	0.0001572096	4804
bin	0.000158064	4761
bin	0.0001589184	4736
bin	0.0001597728	4765
bin	0.0001606272	4878
bin	0.0001614816	4868
bin	0.000162336	4871
bin	0.0001631904	4812
bin	0.0001640448	4934
bin	0.0001648992	4831
bin	0.0001657536	4838
bin	0.000166608	4783
bin	0.0001674624	4838
bin	0.0001683168	4801
bin	0.0001691712	4790
bin	0.0001700256	4824
bin	0.00017088	4854
bin	0.0001717344	4645
bin	0.0001725888	4726
bin	0.0001734432	4805
bin	0.0001742976	4871
bin	0.000175152	4866
bin	0.0001760064	4762
bin	0.0001768608	4829
bin	0.0001777152	4871
bin	0.0001785696	4864
bin	0.000179424	4919
bin	0.0001802784	4903
bin	0.0001811328	4861
bin	0.0001819872	4870
bin	0.0001828416	4699
bin	0.000183696	4923
bin	0.0001845504	4812
bin	0.0001854048	4757
bin	0.0001862592	4844
bin	0.0001871136	4817
bin	0.000187968	4791
bin	0.0001888224	4843
bin	0.0001896768	4712
bin	0.0001905312	4717
bin	0.0001913856	4760
bin	0.00019224	4834
bin	0.0001930944	4893
bin	0.0001939488	4798
bin	0.0001948032	4839
bin	0.0001956576	4792
bin	0.000196512	4794
bin	0.0001973664	4813
bin	0.0001982208	4838
bin	0.0001990752	4838
bin	0.0001999296	4793
bin	0.000200784	4871
bin	0.0002016384	4772
bin	0.0002024928	4866
bin	0.0002033472	5011
bin	0.0002042016	4819
bin	0.000205056	4902
bin	0.0002059104	4773
bin	0.0002067648	4819
bin	0.0002076192	4800
bin	0.0002084736	4897
bin	0.000209328	4746
bin	0.0002101824	4804
bin	0.0002110368	4737
bin	0.0002118912	4839
bin	0.0002127456	4861
bin	0.0002136	4912
bin	0.0002144544	4679
bin	0.0002153088	4671
bin	0.0002161632	4856
bin	0.0002170176	4848
bin	0.000217872	4884
bin	0.0002187264	4796
bin	0.0002195808	4894
bin	0.0002204352	4850
bin	0.0002212896	4770
bin	0.000222144	4725
bin	0.0002229984	4794
bin	0.0002238528	4927
bin	0.0002247072	4837
bin	0.0002255616	4753
bin	0.000226416	4773
bin	0.0002272704	4690
bin	0.0002281248	4645
bin	0.0002289792	4727
bin	0.0002298336	4770
bin	0.000230688	4544
bin	0.0002315424	4539
bin	0.0002323968	4618
bin	0.0002332512	4598
bin	0.0002341056	4596
bin	0.00023496	4553
bin	0.0002358144	4563
bin	0.0002366688	4674
bin	0.0002375232	4602
bin	0.0002383776	4651
bin	0.000239232	4649
bin	0.0002400864	4748
bin	0.0002409408	4741
bin	0.0002417952	4569
bin	0.0002426496	4600
bin	0.000243504	4638
bin	0.0002443584	4713
bin	0.0002452128	4524
bin	0.0002460672	4734
bin	0.0002469216	4788
bin	0.000247776	4674
bin	0.0002486304	4701
bin	0.0002494848	4587
bin	0.0002503392	4715
bin	0.0002511936	4694
bin	0.000252048	4673
bin	0.0002529024	4554
bin	0.0002537568	4657
bin	0.0002546112	4570
bin	0.0002554656	4700
bin	0.00025632	4669
bin	0.0002571744	4594
bin	0.0002580288	4711
bin	0.0002588832	4724
bin	0.0002597376	4661
bin	0.000260592	4658
bin	0.0002614464	4679
bin	0.0002623008	4704
bin	0.0002631552	4828
bin	0.0002640096	4667
bin	0.000264864	4728
bin	0.0002657184	4906
bin	0.0002665728	4725
bin	0.0002674272	4782
bin	0.0002682816	4708
bin	0.000269136	4843
bin	0.0002699904	4812
bin	0.0002708448	4719
bin	0.0002716992	4632
bin	0.0002725536	4678
bin	0.000273408	4604
bin	0.0002742624	4620
bin	0.0002751168	4554
bin	0.0002759712	4607
bin	0.0002768256	4574
bin	0.00027768	4617
bin	0.0002785344	4578
bin	0.0002793888	4535
bin	0.0002802432	4671
bin	0.0002810976	4541
bin	0.000281952	4526
bin	0.0002828064	4545
bin	0.0002836608	4648
bin	0.0002845152	4581
bin	0.0002853696	4566
bin	0.000286224	4605
bin	0.0002870784	4702
bin	0.0002879328	4548
bin	0.0002887872	4602
bin	0.0002896416	4544
bin	0.000290496	4531
bin	0.0002913504	4599
bin	0.0002922048	4611
bin	0.0002930592	4700
bin	0.0002939136	4645
bin	0.000294768	4698
bin	0.0002956224	4705
bin	0.0002964768	4715
bin	0.0002973312	4572
bin	0.0002981856	4644
bin	0.00029904	4656
bin	0.0002998944	4613
bin	0.0003007488	4512
bin	0.0003016032	4435
bin	0.0003024576	4521
bin	0.000303312	4454
bin	0.0003041664	4406
bin	0.0003050208	4487
bin	0.0003058752	4468
bin	0.0003067296	4362
bin	0.000307584	4469
bin	0.0003084384	4518
bin	0.0003092928	4529
bin	0.0003101472	4379
bin	0.0003110016	4481
bin	0.000311856	4348
bin	0.0003127104	4414
bin	0.0003135648	4441
bin	0.0003144192	4511
bin	0.0003152736	4579
bin	0.000316128	4453
bin	0.0003169824	4434
bin	0.0003178368	4602
bin	0.0003186912	4442
bin	0.0003195456	4488
bin	0.0003204	4655
bin	0.0003212544	4458
bin	0.0003221088	4422
bin	0.0003229632	4534
bin	0.0003238176	4466
bin	0.000324672	4434
bin	0.0003255264	4522
bin	0.0003263808	4372
bin	0.0003272352	4530
bin	0.0003280896	4509
bin	0.000328944	4457
bin	0.0003297984	4453
bin	0.0003306528	4394
bin	0.0003315072	4553
bin	0.0003323616	4451
bin	0.000333216	4424
bin	0.0003340704	4545
bin	0.0003349248	4557
bin	0.0003357792	4565
bin	0.0003366336	4555
bin	0.000337488	4502
bin	0.0003383424	4443
bin	0.0003391968	4394
bin	0.0003400512	4382
bin	0.0003409056	4466
bin	0.00034176	4332
bin	0.0003426144	4288
bin	0.0003434688	4369
bin	0.0003443232	4382
bin	0.0003451776	4474
bin	0.000346032	4454
bin	0.0003468864	4468
bin	0.0003477408	4477
bin	0.0003485952	4539
bin	0.0003494496	4318
bin	0.000350304	4379
bin	0.0003511584	4422
bin	0.0003520128	4347
bin	0.0003528672	4313
bin	0.0003537216	4418
bin	0.000354576	4393
bin	0.0003554304	4484
bin	0.0003562848	4519
bin	0.0003571392	4418
bin	0.0003579936	4401
bin	0.000358848	4442
bin	0.0003597024	4378
bin	0.0003605568	4375
bin	0.0003614112	4438
bin	0.0003622656	4353
bin	0.00036312	4467
bin	0.0003639744	4320
bin	0.0003648288	4395
bin	0.0003656832	4423
bin	0.0003665376	4414
bin	0.000367392	4366
bin	0.0003682464	4488
bin	0.0003691008	4414
bin	0.0003699552	4432
bin	0.0003708096	4428
bin	0.000371664	4435
bin	0.0003725184	4371
bin	0.0003733728	4355
bin	0.0003742272	4484
bin	0.0003750816	4435
bin	0.000375936	4397
bin	0.0003767904	4534
bin	0.0003776448	4498
bin	0.0003784992	4511
bin	0.0003793536	4459
bin	0.000380208	4504
bin	0.0003810624	4553
bin	0.0003819168	4541
bin	0.0003827712	4520
bin	0.0003836256	4553
bin	0.00038448	4629
bin	0.0003853344	4557
bin	0.0003861888	4558
bin	0.0003870432	4579
bin	0.0003878976	4576
bin	0.000388752	4534
bin	0.0003896064	4583
bin	0.0003904608	4523
bin	0.0003913152	4604
bin	0.0003921696	4605
bin	0.000393024	4570
bin	0.0003938784	4575
bin	0.0003947328	4527
bin	0.0003955872	4474
bin	0.0003964416	4647
bin	0.000397296	4569
bin	0.0003981504	4515
bin	0.0003990048	4557
bin	0.0003998592	4584
bin	0.0004007136	4548
bin	0.000401568	4695
bin	0.0004024224	4652
bin	0.0004032768	4688
bin	0.0004041312	4500
bin	0.0004049856	4605
bin	0.00040584	4459
bin	0.0004066944	4425
bin	0.0004075488	4504
bin	0.0004084032	4517
bin	0.0004092576	4550
bin	0.000410112	4435
bin	0.0004109664	4566
bin	0.0004118208	4526
bin	0.0004126752	4575
bin	0.0004135296	4560
bin	0.000414384	4535
bin	0.0004152384	4537
bin	0.0004160928	4541
bin	0.0004169472	4539
bin	0.0004178016	4372
bin	0.000418656	4414
bin	0.0004195104	4592
bin	0.0004203648	4507
bin	0.0004212192	4498
bin	0.0004220736	4426
bin	0.000422928	4493
bin	0.0004237824	4415
bin	0.0004246368	4525
bin	0.0004254912	4659
bin	0.0004263456	4578
bin	0.0004272	3378015
