version 2
run Uniform-17-20120709-15:54:08-24394
attr alg 1
attr buf 8
attr configname Uniform
attr datetime 20120709-15:54:08
attr delta 1
attr experiment Uniform
attr ext true
attr inifile altro.ini
attr iterationvars "$buf=8, $ext=true, $ofedge=1, $delta=1, $alg=1"
attr iterationvars2 "$buf=8, $ext=true, $ofedge=1, $delta=1, $alg=1, $repetition=0"
attr measurement "$buf=8, $ext=true, $ofedge=1, $delta=1, $alg=1"
attr network Torus3d_bub
attr ofedge 1
attr processid 24394
attr repetition 0
attr replication #0
attr resultdir altro-results
attr runnumber 17
attr seedset 17

scalar . 	alg 	1
scalar . 	buf 	8
scalar . 	delta 	1
scalar . 	ofedge 	1
scalar Torus3d_bub.timer 	#endTime 	0.002252366996507
scalar Torus3d_bub.timer 	#totalHops 	85738984
scalar Torus3d_bub.timer 	#totalPacks 	6291456
scalar Torus3d_bub.timer 	#totalDerouted 	2444236
scalar Torus3d_bub.timer 	#totalOutFlanked 	2444236
scalar Torus3d_bub.timer 	#totalCQRed 	0
scalar Torus3d_bub.timer 	#LB 	0.000786432
scalar Torus3d_bub.timer 	#ratio 	0.34915801963872
statistic Torus3d_bub.timer 	"Hop Times"
field count 6289872
field mean 5.6036543636798e-05
field stddev 5.6061768839356e-05
field sum 352.46268679788
field sqrsum 0.039519364202914
field min 4.00518518e-07
field max 0.001737118996849
bin	-INF	0
bin	0	0
bin	7.12e-08	0
bin	1.424e-07	0
bin	2.136e-07	0
bin	2.848e-07	0
bin	3.56e-07	31
bin	4.272e-07	636
bin	4.984e-07	1569
bin	5.696e-07	2440
bin	6.408e-07	3654
bin	7.12e-07	4864
bin	7.832e-07	5888
bin	8.544e-07	6862
bin	9.256e-07	7699
bin	9.968e-07	8779
bin	1.068e-06	9733
bin	1.1392e-06	10659
bin	1.2104e-06	11945
bin	1.2816e-06	13305
bin	1.3528e-06	14824
bin	1.424e-06	16373
bin	1.4952e-06	17804
bin	1.5664e-06	19326
bin	1.6376e-06	20466
bin	1.7088e-06	21289
bin	1.78e-06	21841
bin	1.8512e-06	21984
bin	1.9224e-06	21625
bin	1.9936e-06	21318
bin	2.0648e-06	20817
bin	2.136e-06	20077
bin	2.2072e-06	19297
bin	2.2784e-06	18316
bin	2.3496e-06	17656
bin	2.4208e-06	16827
bin	2.492e-06	15777
bin	2.5632e-06	15245
bin	2.6344e-06	14453
bin	2.7056e-06	13822
bin	2.7768e-06	12809
bin	2.848e-06	12422
bin	2.9192e-06	12068
bin	2.9904e-06	11336
bin	3.0616e-06	10922
bin	3.1328e-06	10698
bin	3.204e-06	10183
bin	3.2752e-06	9751
bin	3.3464e-06	9654
bin	3.4176e-06	9244
bin	3.4888e-06	8915
bin	3.56e-06	8647
bin	3.6312e-06	8419
bin	3.7024e-06	8381
bin	3.7736e-06	8058
bin	3.8448e-06	7690
bin	3.916e-06	7724
bin	3.9872e-06	7526
bin	4.0584e-06	7338
bin	4.1296e-06	7381
bin	4.2008e-06	7251
bin	4.272e-06	7034
bin	4.3432e-06	6983
bin	4.4144e-06	6889
bin	4.4856e-06	6804
bin	4.5568e-06	6604
bin	4.628e-06	6612
bin	4.6992e-06	6557
bin	4.7704e-06	6559
bin	4.8416e-06	6377
bin	4.9128e-06	6409
bin	4.984e-06	6248
bin	5.0552e-06	5969
bin	5.1264e-06	6139
bin	5.1976e-06	6032
bin	5.2688e-06	6100
bin	5.34e-06	6100
bin	5.4112e-06	5988
bin	5.4824e-06	5747
bin	5.5536e-06	5761
bin	5.6248e-06	5791
bin	5.696e-06	5686
bin	5.7672e-06	5635
bin	5.8384e-06	5817
bin	5.9096e-06	5764
bin	5.9808e-06	5601
bin	6.052e-06	5627
bin	6.1232e-06	5605
bin	6.1944e-06	5583
bin	6.2656e-06	5580
bin	6.3368e-06	5556
bin	6.408e-06	5438
bin	6.4792e-06	5507
bin	6.5504e-06	5507
bin	6.6216e-06	5462
bin	6.6928e-06	5456
bin	6.764e-06	5399
bin	6.8352e-06	5372
bin	6.9064e-06	5286
bin	6.9776e-06	5315
bin	7.0488e-06	5459
bin	7.12e-06	5418
bin	7.1912e-06	5216
bin	7.2624e-06	5054
bin	7.3336e-06	5170
bin	7.4048e-06	5322
bin	7.476e-06	5256
bin	7.5472e-06	5195
bin	7.6184e-06	5172
bin	7.6896e-06	5176
bin	7.7608e-06	5214
bin	7.832e-06	5286
bin	7.9032e-06	5184
bin	7.9744e-06	5161
bin	8.0456e-06	5026
bin	8.1168e-06	5115
bin	8.188e-06	5091
bin	8.2592e-06	5168
bin	8.3304e-06	5113
bin	8.4016e-06	5147
bin	8.4728e-06	5072
bin	8.544e-06	5072
bin	8.6152e-06	5076
bin	8.6864e-06	5053
bin	8.7576e-06	5100
bin	8.8288e-06	5025
bin	8.9e-06	5049
bin	8.9712e-06	5026
bin	9.0424e-06	5068
bin	9.1136e-06	4990
bin	9.1848e-06	5032
bin	9.256e-06	4997
bin	9.3272e-06	4906
bin	9.3984e-06	4855
bin	9.4696e-06	4959
bin	9.5408e-06	4903
bin	9.612e-06	4864
bin	9.6832e-06	4891
bin	9.7544e-06	4927
bin	9.8256e-06	4871
bin	9.8968e-06	4958
bin	9.968e-06	4854
bin	1.00392e-05	4717
bin	1.01104e-05	4917
bin	1.01816e-05	4850
bin	1.02528e-05	4861
bin	1.0324e-05	4862
bin	1.03952e-05	4815
bin	1.04664e-05	4760
bin	1.05376e-05	4816
bin	1.06088e-05	4927
bin	1.068e-05	4767
bin	1.07512e-05	4882
bin	1.08224e-05	4741
bin	1.08936e-05	4719
bin	1.09648e-05	4743
bin	1.1036e-05	4710
bin	1.11072e-05	4704
bin	1.11784e-05	4757
bin	1.12496e-05	4624
bin	1.13208e-05	4678
bin	1.1392e-05	4796
bin	1.14632e-05	4838
bin	1.15344e-05	4783
bin	1.16056e-05	4728
bin	1.16768e-05	4685
bin	1.1748e-05	4663
bin	1.18192e-05	4698
bin	1.18904e-05	4712
bin	1.19616e-05	4621
bin	1.20328e-05	4591
bin	1.2104e-05	4654
bin	1.21752e-05	4739
bin	1.22464e-05	4666
bin	1.23176e-05	4552
bin	1.23888e-05	4620
bin	1.246e-05	4630
bin	1.25312e-05	4557
bin	1.26024e-05	4469
bin	1.26736e-05	4506
bin	1.27448e-05	4610
bin	1.2816e-05	4562
bin	1.28872e-05	4370
bin	1.29584e-05	4518
bin	1.30296e-05	4407
bin	1.31008e-05	4406
bin	1.3172e-05	4533
bin	1.32432e-05	4456
bin	1.33144e-05	4527
bin	1.33856e-05	4480
bin	1.34568e-05	4524
bin	1.3528e-05	4463
bin	1.35992e-05	4473
bin	1.36704e-05	4516
bin	1.37416e-05	4531
bin	1.38128e-05	4442
bin	1.3884e-05	4439
bin	1.39552e-05	4358
bin	1.40264e-05	4532
bin	1.40976e-05	4491
bin	1.41688e-05	4483
bin	1.424e-05	4514
bin	1.43112e-05	4470
bin	1.43824e-05	4538
bin	1.44536e-05	4503
bin	1.45248e-05	4432
bin	1.4596e-05	4476
bin	1.46672e-05	4500
bin	1.47384e-05	4373
bin	1.48096e-05	4394
bin	1.48808e-05	4453
bin	1.4952e-05	4521
bin	1.50232e-05	4351
bin	1.50944e-05	4355
bin	1.51656e-05	4279
bin	1.52368e-05	4367
bin	1.5308e-05	4412
bin	1.53792e-05	4364
bin	1.54504e-05	4470
bin	1.55216e-05	4388
bin	1.55928e-05	4412
bin	1.5664e-05	4269
bin	1.57352e-05	4296
bin	1.58064e-05	4334
bin	1.58776e-05	4288
bin	1.59488e-05	4321
bin	1.602e-05	4322
bin	1.60912e-05	4396
bin	1.61624e-05	4375
bin	1.62336e-05	4310
bin	1.63048e-05	4254
bin	1.6376e-05	4317
bin	1.64472e-05	4376
bin	1.65184e-05	4341
bin	1.65896e-05	4402
bin	1.66608e-05	4402
bin	1.6732e-05	4441
bin	1.68032e-05	4404
bin	1.68744e-05	4407
bin	1.69456e-05	4283
bin	1.70168e-05	4262
bin	1.7088e-05	4361
bin	1.71592e-05	4269
bin	1.72304e-05	4360
bin	1.73016e-05	4347
bin	1.73728e-05	4376
bin	1.7444e-05	4392
bin	1.75152e-05	4358
bin	1.75864e-05	4299
bin	1.76576e-05	4281
bin	1.77288e-05	4442
bin	1.78e-05	4295
bin	1.78712e-05	4309
bin	1.79424e-05	4385
bin	1.80136e-05	4327
bin	1.80848e-05	4289
bin	1.8156e-05	4253
bin	1.82272e-05	4319
bin	1.82984e-05	4309
bin	1.83696e-05	4297
bin	1.84408e-05	4247
bin	1.8512e-05	4248
bin	1.85832e-05	4333
bin	1.86544e-05	4351
bin	1.87256e-05	4353
bin	1.87968e-05	4344
bin	1.8868e-05	4310
bin	1.89392e-05	4311
bin	1.90104e-05	4462
bin	1.90816e-05	4228
bin	1.91528e-05	4300
bin	1.9224e-05	4354
bin	1.92952e-05	4293
bin	1.93664e-05	4286
bin	1.94376e-05	4282
bin	1.95088e-05	4118
bin	1.958e-05	4138
bin	1.96512e-05	4216
bin	1.97224e-05	4266
bin	1.97936e-05	4304
bin	1.98648e-05	4172
bin	1.9936e-05	4221
bin	2.00072e-05	4129
bin	2.00784e-05	4125
bin	2.01496e-05	4175
bin	2.02208e-05	4226
bin	2.0292e-05	4140
bin	2.03632e-05	4209
bin	2.04344e-05	4353
bin	2.05056e-05	4264
bin	2.05768e-05	4251
bin	2.0648e-05	4281
bin	2.07192e-05	4186
bin	2.07904e-05	4171
bin	2.08616e-05	4231
bin	2.09328e-05	4128
bin	2.1004e-05	4163
bin	2.10752e-05	4231
bin	2.11464e-05	4181
bin	2.12176e-05	4203
bin	2.12888e-05	4147
bin	2.136e-05	4195
bin	2.14312e-05	4282
bin	2.15024e-05	4235
bin	2.15736e-05	4178
bin	2.16448e-05	4310
bin	2.1716e-05	4173
bin	2.17872e-05	4253
bin	2.18584e-05	4235
bin	2.19296e-05	4176
bin	2.20008e-05	4245
bin	2.2072e-05	4276
bin	2.21432e-05	4226
bin	2.22144e-05	4312
bin	2.22856e-05	4324
bin	2.23568e-05	4181
bin	2.2428e-05	4340
bin	2.24992e-05	4267
bin	2.25704e-05	4215
bin	2.26416e-05	4223
bin	2.27128e-05	4187
bin	2.2784e-05	4255
bin	2.28552e-05	4139
bin	2.29264e-05	4160
bin	2.29976e-05	4148
bin	2.30688e-05	4106
bin	2.314e-05	4153
bin	2.32112e-05	4147
bin	2.32824e-05	4189
bin	2.33536e-05	4189
bin	2.34248e-05	4207
bin	2.3496e-05	4364
bin	2.35672e-05	4140
bin	2.36384e-05	4180
bin	2.37096e-05	4149
bin	2.37808e-05	4282
bin	2.3852e-05	4263
bin	2.39232e-05	4142
bin	2.39944e-05	4258
bin	2.40656e-05	4296
bin	2.41368e-05	4281
bin	2.4208e-05	4227
bin	2.42792e-05	4308
bin	2.43504e-05	4146
bin	2.44216e-05	4186
bin	2.44928e-05	4198
bin	2.4564e-05	4214
bin	2.46352e-05	4091
bin	2.47064e-05	4135
bin	2.47776e-05	4253
bin	2.48488e-05	4120
bin	2.492e-05	4234
bin	2.49912e-05	3983
bin	2.50624e-05	4008
bin	2.51336e-05	4065
bin	2.52048e-05	4117
bin	2.5276e-05	4067
bin	2.53472e-05	4014
bin	2.54184e-05	4148
bin	2.54896e-05	4112
bin	2.55608e-05	4125
bin	2.5632e-05	4094
bin	2.57032e-05	4075
bin	2.57744e-05	4106
bin	2.58456e-05	4168
bin	2.59168e-05	4091
bin	2.5988e-05	4065
bin	2.60592e-05	4006
bin	2.61304e-05	4083
bin	2.62016e-05	4009
bin	2.62728e-05	4071
bin	2.6344e-05	4120
bin	2.64152e-05	4027
bin	2.64864e-05	4091
bin	2.65576e-05	4022
bin	2.66288e-05	4001
bin	2.67e-05	4119
bin	2.67712e-05	4058
bin	2.68424e-05	4060
bin	2.69136e-05	4015
bin	2.69848e-05	4028
bin	2.7056e-05	3989
bin	2.71272e-05	3959
bin	2.71984e-05	4027
bin	2.72696e-05	4160
bin	2.73408e-05	4039
bin	2.7412e-05	4106
bin	2.74832e-05	4098
bin	2.75544e-05	3994
bin	2.76256e-05	4055
bin	2.76968e-05	3975
bin	2.7768e-05	4077
bin	2.78392e-05	4032
bin	2.79104e-05	3977
bin	2.79816e-05	4093
bin	2.80528e-05	3943
bin	2.8124e-05	4060
bin	2.81952e-05	4004
bin	2.82664e-05	4081
bin	2.83376e-05	3934
bin	2.84088e-05	3922
bin	2.848e-05	3982
bin	2.85512e-05	3974
bin	2.86224e-05	3979
bin	2.86936e-05	3994
bin	2.87648e-05	4012
bin	2.8836e-05	4034
bin	2.89072e-05	4050
bin	2.89784e-05	4068
bin	2.90496e-05	4024
bin	2.91208e-05	4057
bin	2.9192e-05	3949
bin	2.92632e-05	3964
bin	2.93344e-05	3801
bin	2.94056e-05	4069
bin	2.94768e-05	3948
bin	2.9548e-05	3909
bin	2.96192e-05	3940
bin	2.96904e-05	4030
bin	2.97616e-05	3962
bin	2.98328e-05	4000
bin	2.9904e-05	3972
bin	2.99752e-05	3955
bin	3.00464e-05	3924
bin	3.01176e-05	4008
bin	3.01888e-05	3907
bin	3.026e-05	4030
bin	3.03312e-05	3940
bin	3.04024e-05	4066
bin	3.04736e-05	4049
bin	3.05448e-05	3960
bin	3.0616e-05	3889
bin	3.06872e-05	3922
bin	3.07584e-05	3940
bin	3.08296e-05	4080
bin	3.09008e-05	3924
bin	3.0972e-05	3934
bin	3.10432e-05	3908
bin	3.11144e-05	3945
bin	3.11856e-05	3905
bin	3.12568e-05	4002
bin	3.1328e-05	3949
bin	3.13992e-05	4017
bin	3.14704e-05	3945
bin	3.15416e-05	4017
bin	3.16128e-05	3963
bin	3.1684e-05	3888
bin	3.17552e-05	3846
bin	3.18264e-05	3765
bin	3.18976e-05	3984
bin	3.19688e-05	3943
bin	3.204e-05	3949
bin	3.21112e-05	3932
bin	3.21824e-05	3872
bin	3.22536e-05	3857
bin	3.23248e-05	3904
bin	3.2396e-05	3918
bin	3.24672e-05	3845
bin	3.25384e-05	3983
bin	3.26096e-05	3971
bin	3.26808e-05	3848
bin	3.2752e-05	3849
bin	3.28232e-05	3759
bin	3.28944e-05	3970
bin	3.29656e-05	3878
bin	3.30368e-05	3862
bin	3.3108e-05	3979
bin	3.31792e-05	3951
bin	3.32504e-05	3857
bin	3.33216e-05	3832
bin	3.33928e-05	3905
bin	3.3464e-05	3814
bin	3.35352e-05	3882
bin	3.36064e-05	3868
bin	3.36776e-05	3811
bin	3.37488e-05	3829
bin	3.382e-05	3879
bin	3.38912e-05	3928
bin	3.39624e-05	3806
bin	3.40336e-05	3859
bin	3.41048e-05	3720
bin	3.4176e-05	3773
bin	3.42472e-05	3801
bin	3.43184e-05	3937
bin	3.43896e-05	3957
bin	3.44608e-05	3803
bin	3.4532e-05	4053
bin	3.46032e-05	3921
bin	3.46744e-05	3750
bin	3.47456e-05	3881
bin	3.48168e-05	3896
bin	3.4888e-05	3854
bin	3.49592e-05	3822
bin	3.50304e-05	3843
bin	3.51016e-05	3815
bin	3.51728e-05	3878
bin	3.5244e-05	3839
bin	3.53152e-05	3935
bin	3.53864e-05	3804
bin	3.54576e-05	3769
bin	3.55288e-05	3796
bin	3.56e-05	3680581
statistic Torus3d_bub.timer 	"Life Times"
field count 6291456
field mean 0.00066756456945264
field stddev 0.00046611960563752
field sum 4199.9531158702
field sqrsum 4.1706685094288
field min 3.34666628e-07
field max 0.002012243663656
bin	-INF	0
bin	0	20
bin	8.544e-07	150
bin	1.7088e-06	619
bin	2.5632e-06	1390
bin	3.4176e-06	2250
bin	4.272e-06	2936
bin	5.1264e-06	3803
bin	5.9808e-06	4589
bin	6.8352e-06	5286
bin	7.6896e-06	6161
bin	8.544e-06	7213
bin	9.3984e-06	8251
bin	1.02528e-05	9142
bin	1.11072e-05	9472
bin	1.19616e-05	10204
bin	1.2816e-05	10977
bin	1.36704e-05	11583
bin	1.45248e-05	12284
bin	1.53792e-05	13075
bin	1.62336e-05	13767
bin	1.7088e-05	14657
bin	1.79424e-05	15181
bin	1.87968e-05	16055
bin	1.96512e-05	17076
bin	2.05056e-05	17892
bin	2.136e-05	18361
bin	2.22144e-05	19222
bin	2.30688e-05	19854
bin	2.39232e-05	20330
bin	2.47776e-05	20215
bin	2.5632e-05	19894
bin	2.64864e-05	19469
bin	2.73408e-05	18478
bin	2.81952e-05	17568
bin	2.90496e-05	16504
bin	2.9904e-05	15398
bin	3.07584e-05	14549
bin	3.16128e-05	13662
bin	3.24672e-05	12671
bin	3.33216e-05	11802
bin	3.4176e-05	11061
bin	3.50304e-05	10490
bin	3.58848e-05	9676
bin	3.67392e-05	9288
bin	3.75936e-05	8735
bin	3.8448e-05	8416
bin	3.93024e-05	8321
bin	4.01568e-05	7956
bin	4.10112e-05	8061
bin	4.18656e-05	7681
bin	4.272e-05	7579
bin	4.35744e-05	7491
bin	4.44288e-05	7288
bin	4.52832e-05	7307
bin	4.61376e-05	7248
bin	4.6992e-05	7195
bin	4.78464e-05	7278
bin	4.87008e-05	7125
bin	4.95552e-05	7011
bin	5.04096e-05	6882
bin	5.1264e-05	6795
bin	5.21184e-05	6746
bin	5.29728e-05	6470
bin	5.38272e-05	6266
bin	5.46816e-05	6033
bin	5.5536e-05	5984
bin	5.63904e-05	5966
bin	5.72448e-05	5681
bin	5.80992e-05	5436
bin	5.89536e-05	5513
bin	5.9808e-05	5374
bin	6.06624e-05	5174
bin	6.15168e-05	5279
bin	6.23712e-05	5202
bin	6.32256e-05	5239
bin	6.408e-05	5053
bin	6.49344e-05	4968
bin	6.57888e-05	5039
bin	6.66432e-05	4979
bin	6.74976e-05	4990
bin	6.8352e-05	5064
bin	6.92064e-05	5013
bin	7.00608e-05	4953
bin	7.09152e-05	5012
bin	7.17696e-05	5047
bin	7.2624e-05	5010
bin	7.34784e-05	5012
bin	7.43328e-05	5143
bin	7.51872e-05	5077
bin	7.60416e-05	4961
bin	7.6896e-05	5015
bin	7.77504e-05	5001
bin	7.86048e-05	5032
bin	7.94592e-05	4949
bin	8.03136e-05	4893
bin	8.1168e-05	4842
bin	8.20224e-05	4698
bin	8.28768e-05	4560
bin	8.37312e-05	4512
bin	8.45856e-05	4576
bin	8.544e-05	4577
bin	8.62944e-05	4521
bin	8.71488e-05	4650
bin	8.80032e-05	4557
bin	8.88576e-05	4524
bin	8.9712e-05	4569
bin	9.05664e-05	4566
bin	9.14208e-05	4637
bin	9.22752e-05	4624
bin	9.31296e-05	4675
bin	9.3984e-05	4732
bin	9.48384e-05	4550
bin	9.56928e-05	4584
bin	9.65472e-05	4508
bin	9.74016e-05	4563
bin	9.8256e-05	4603
bin	9.91104e-05	4629
bin	9.99648e-05	4596
bin	0.0001008192	4552
bin	0.0001016736	4446
bin	0.000102528	4516
bin	0.0001033824	4534
bin	0.0001042368	4490
bin	0.0001050912	4597
bin	0.0001059456	4610
bin	0.0001068	4515
bin	0.0001076544	4474
bin	0.0001085088	4466
bin	0.0001093632	4514
bin	0.0001102176	4482
bin	0.000111072	4468
bin	0.0001119264	4458
bin	0.0001127808	4355
bin	0.0001136352	4353
bin	0.0001144896	4249
bin	0.000115344	4378
bin	0.0001161984	4304
bin	0.0001170528	4395
bin	0.0001179072	4375
bin	0.0001187616	4370
bin	0.000119616	4316
bin	0.0001204704	4199
bin	0.0001213248	4306
bin	0.0001221792	4313
bin	0.0001230336	4253
bin	0.000123888	4254
bin	0.0001247424	4323
bin	0.0001255968	4304
bin	0.0001264512	4321
bin	0.0001273056	4263
bin	0.00012816	4250
bin	0.0001290144	4231
bin	0.0001298688	4172
bin	0.0001307232	4193
bin	0.0001315776	4116
bin	0.000132432	4261
bin	0.0001332864	4156
bin	0.0001341408	4225
bin	0.0001349952	4142
bin	0.0001358496	4190
bin	0.000136704	4155
bin	0.0001375584	3987
bin	0.0001384128	4074
bin	0.0001392672	4051
bin	0.0001401216	4101
bin	0.000140976	4206
bin	0.0001418304	4176
bin	0.0001426848	4066
bin	0.0001435392	4151
bin	0.0001443936	4054
bin	0.000145248	4045
bin	0.0001461024	4081
bin	0.0001469568	4083
bin	0.0001478112	4065
bin	0.0001486656	4074
bin	0.00014952	4157
bin	0.0001503744	4098
bin	0.0001512288	4180
bin	0.0001520832	4021
bin	0.0001529376	4113
bin	0.000153792	4044
bin	0.0001546464	3987
bin	0.0001555008	4027
bin	0.0001563552	4029
bin	0.0001572096	4070
bin	0.000158064	4041
bin	0.0001589184	4154
bin	0.0001597728	4020
bin	0.0001606272	3994
bin	0.0001614816	3988
bin	0.000162336	4008
bin	0.0001631904	3982
bin	0.0001640448	4095
bin	0.0001648992	4043
bin	0.0001657536	4028
bin	0.000166608	3992
bin	0.0001674624	3896
bin	0.0001683168	3935
bin	0.0001691712	3974
bin	0.0001700256	4110
bin	0.00017088	4023
bin	0.0001717344	3917
bin	0.0001725888	3947
bin	0.0001734432	3910
bin	0.0001742976	4002
bin	0.000175152	3967
bin	0.0001760064	3885
bin	0.0001768608	3949
bin	0.0001777152	3905
bin	0.0001785696	3907
bin	0.000179424	3923
bin	0.0001802784	3913
bin	0.0001811328	3878
bin	0.0001819872	3955
bin	0.0001828416	3964
bin	0.000183696	3935
bin	0.0001845504	3886
bin	0.0001854048	3986
bin	0.0001862592	4018
bin	0.0001871136	3963
bin	0.000187968	3987
bin	0.0001888224	3906
bin	0.0001896768	3930
bin	0.0001905312	3999
bin	0.0001913856	3951
bin	0.00019224	3876
bin	0.0001930944	3991
bin	0.0001939488	3934
bin	0.0001948032	3929
bin	0.0001956576	3914
bin	0.000196512	3880
bin	0.0001973664	3826
bin	0.0001982208	3857
bin	0.0001990752	3671
bin	0.0001999296	3751
bin	0.000200784	3790
bin	0.0002016384	3802
bin	0.0002024928	3732
bin	0.0002033472	3698
bin	0.0002042016	3791
bin	0.000205056	3767
bin	0.0002059104	3800
bin	0.0002067648	3740
bin	0.0002076192	3725
bin	0.0002084736	3829
bin	0.000209328	3688
bin	0.0002101824	3780
bin	0.0002110368	3623
bin	0.0002118912	3683
bin	0.0002127456	3645
bin	0.0002136	3695
bin	0.0002144544	3755
bin	0.0002153088	3665
bin	0.0002161632	3798
bin	0.0002170176	3760
bin	0.000217872	3672
bin	0.0002187264	3788
bin	0.0002195808	3828
bin	0.0002204352	3689
bin	0.0002212896	3710
bin	0.000222144	3720
bin	0.0002229984	3639
bin	0.0002238528	3787
bin	0.0002247072	3829
bin	0.0002255616	3705
bin	0.000226416	3790
bin	0.0002272704	3695
bin	0.0002281248	3752
bin	0.0002289792	3645
bin	0.0002298336	3716
bin	0.000230688	3819
bin	0.0002315424	3686
bin	0.0002323968	3721
bin	0.0002332512	3790
bin	0.0002341056	3684
bin	0.00023496	3698
bin	0.0002358144	3619
bin	0.0002366688	3659
bin	0.0002375232	3758
bin	0.0002383776	3647
bin	0.000239232	3691
bin	0.0002400864	3715
bin	0.0002409408	3641
bin	0.0002417952	3735
bin	0.0002426496	3615
bin	0.000243504	3629
bin	0.0002443584	3714
bin	0.0002452128	3660
bin	0.0002460672	3640
bin	0.0002469216	3630
bin	0.000247776	3623
bin	0.0002486304	3617
bin	0.0002494848	3546
bin	0.0002503392	3776
bin	0.0002511936	3654
bin	0.000252048	3571
bin	0.0002529024	3829
bin	0.0002537568	3624
bin	0.0002546112	3697
bin	0.0002554656	3701
bin	0.00025632	3744
bin	0.0002571744	3682
bin	0.0002580288	3817
bin	0.0002588832	3734
bin	0.0002597376	3764
bin	0.000260592	3733
bin	0.0002614464	3735
bin	0.0002623008	3750
bin	0.0002631552	3667
bin	0.0002640096	3745
bin	0.000264864	3719
bin	0.0002657184	3780
bin	0.0002665728	3763
bin	0.0002674272	3783
bin	0.0002682816	3836
bin	0.000269136	3748
bin	0.0002699904	3815
bin	0.0002708448	3715
bin	0.0002716992	3765
bin	0.0002725536	3699
bin	0.000273408	3639
bin	0.0002742624	3719
bin	0.0002751168	3565
bin	0.0002759712	3688
bin	0.0002768256	3673
bin	0.00027768	3605
bin	0.0002785344	3716
bin	0.0002793888	3796
bin	0.0002802432	3782
bin	0.0002810976	3676
bin	0.000281952	3709
bin	0.0002828064	3747
bin	0.0002836608	3782
bin	0.0002845152	3769
bin	0.0002853696	3770
bin	0.000286224	3821
bin	0.0002870784	3796
bin	0.0002879328	3707
bin	0.0002887872	3829
bin	0.0002896416	3742
bin	0.000290496	3737
bin	0.0002913504	3831
bin	0.0002922048	3825
bin	0.0002930592	3779
bin	0.0002939136	3745
bin	0.000294768	3758
bin	0.0002956224	3732
bin	0.0002964768	3744
bin	0.0002973312	3670
bin	0.0002981856	3678
bin	0.00029904	3679
bin	0.0002998944	3659
bin	0.0003007488	3694
bin	0.0003016032	3659
bin	0.0003024576	3660
bin	0.000303312	3580
bin	0.0003041664	3717
bin	0.0003050208	3738
bin	0.0003058752	3672
bin	0.0003067296	3707
bin	0.000307584	3623
bin	0.0003084384	3693
bin	0.0003092928	3691
bin	0.0003101472	3671
bin	0.0003110016	3571
bin	0.000311856	3685
bin	0.0003127104	3670
bin	0.0003135648	3666
bin	0.0003144192	3643
bin	0.0003152736	3765
bin	0.000316128	3740
bin	0.0003169824	3723
bin	0.0003178368	3678
bin	0.0003186912	3664
bin	0.0003195456	3586
bin	0.0003204	3654
bin	0.0003212544	3580
bin	0.0003221088	3569
bin	0.0003229632	3615
bin	0.0003238176	3686
bin	0.000324672	3680
bin	0.0003255264	3681
bin	0.0003263808	3751
bin	0.0003272352	3643
bin	0.0003280896	3809
bin	0.000328944	3879
bin	0.0003297984	3728
bin	0.0003306528	3755
bin	0.0003315072	3673
bin	0.0003323616	3758
bin	0.000333216	3781
bin	0.0003340704	3671
bin	0.0003349248	3659
bin	0.0003357792	3662
bin	0.0003366336	3714
bin	0.000337488	3740
bin	0.0003383424	3714
bin	0.0003391968	3731
bin	0.0003400512	3711
bin	0.0003409056	3692
bin	0.00034176	3684
bin	0.0003426144	3732
bin	0.0003434688	3658
bin	0.0003443232	3656
bin	0.0003451776	3712
bin	0.000346032	3698
bin	0.0003468864	3722
bin	0.0003477408	3761
bin	0.0003485952	3704
bin	0.0003494496	3621
bin	0.000350304	3616
bin	0.0003511584	3670
bin	0.0003520128	3661
bin	0.0003528672	3663
bin	0.0003537216	3585
bin	0.000354576	3627
bin	0.0003554304	3570
bin	0.0003562848	3642
bin	0.0003571392	3578
bin	0.0003579936	3638
bin	0.000358848	3693
bin	0.0003597024	3633
bin	0.0003605568	3629
bin	0.0003614112	3658
bin	0.0003622656	3709
bin	0.00036312	3682
bin	0.0003639744	3749
bin	0.0003648288	3709
bin	0.0003656832	3605
bin	0.0003665376	3591
bin	0.000367392	3652
bin	0.0003682464	3646
bin	0.0003691008	3607
bin	0.0003699552	3603
bin	0.0003708096	3639
bin	0.000371664	3733
bin	0.0003725184	3604
bin	0.0003733728	3644
bin	0.0003742272	3682
bin	0.0003750816	3568
bin	0.000375936	3557
bin	0.0003767904	3617
bin	0.0003776448	3454
bin	0.0003784992	3491
bin	0.0003793536	3506
bin	0.000380208	3564
bin	0.0003810624	3513
bin	0.0003819168	3513
bin	0.0003827712	3466
bin	0.0003836256	3592
bin	0.00038448	3560
bin	0.0003853344	3584
bin	0.0003861888	3589
bin	0.0003870432	3550
bin	0.0003878976	3526
bin	0.000388752	3543
bin	0.0003896064	3509
bin	0.0003904608	3511
bin	0.0003913152	3464
bin	0.0003921696	3556
bin	0.000393024	3493
bin	0.0003938784	3464
bin	0.0003947328	3501
bin	0.0003955872	3496
bin	0.0003964416	3550
bin	0.000397296	3564
bin	0.0003981504	3469
bin	0.0003990048	3332
bin	0.0003998592	3494
bin	0.0004007136	3494
bin	0.000401568	3416
bin	0.0004024224	3387
bin	0.0004032768	3483
bin	0.0004041312	3517
bin	0.0004049856	3490
bin	0.00040584	3436
bin	0.0004066944	3505
bin	0.0004075488	3456
bin	0.0004084032	3570
bin	0.0004092576	3481
bin	0.000410112	3522
bin	0.0004109664	3437
bin	0.0004118208	3649
bin	0.0004126752	3582
bin	0.0004135296	3629
bin	0.000414384	3528
bin	0.0004152384	3544
bin	0.0004160928	3527
bin	0.0004169472	3496
bin	0.0004178016	3453
bin	0.000418656	3459
bin	0.0004195104	3506
bin	0.0004203648	3454
bin	0.0004212192	3465
bin	0.0004220736	3530
bin	0.000422928	3537
bin	0.0004237824	3583
bin	0.0004246368	3529
bin	0.0004254912	3536
bin	0.0004263456	3548
bin	0.0004272	3912331
