version 2
run Uniform-78-20120709-19:04:31-24860
attr alg 2
attr buf 8
attr configname Uniform
attr datetime 20120709-19:04:31
attr delta 1
attr experiment Uniform
attr ext false
attr inifile altro.ini
attr iterationvars "$buf=8, $ext=false, $ofedge=2, $delta=1, $alg=2"
attr iterationvars2 "$buf=8, $ext=false, $ofedge=2, $delta=1, $alg=2, $repetition=0"
attr measurement "$buf=8, $ext=false, $ofedge=2, $delta=1, $alg=2"
attr network Torus3d_bub
attr ofedge 2
attr processid 24860
attr repetition 0
attr replication #0
attr resultdir altro-results
attr runnumber 78
attr seedset 78

scalar . 	alg 	2
scalar . 	buf 	8
scalar . 	delta 	1
scalar . 	ofedge 	2
scalar Torus3d_bub.timer 	#endTime 	0.001839478997148
scalar Torus3d_bub.timer 	#totalHops 	89592706
scalar Torus3d_bub.timer 	#totalPacks 	6291456
scalar Torus3d_bub.timer 	#totalDerouted 	1980179
scalar Torus3d_bub.timer 	#totalOutFlanked 	0
scalar Torus3d_bub.timer 	#totalCQRed 	1980179
scalar Torus3d_bub.timer 	#LB 	0.000786432
scalar Torus3d_bub.timer 	#ratio 	0.42752975229362
statistic Torus3d_bub.timer 	"Hop Times"
field count 6289920
field mean 4.056755133225e-05
field stddev 4.1435032528162e-05
field sum 255.16665247575
field sqrsum 0.021150408687409
field min 3.79428571e-07
field max 0.001095799666665
bin	-INF	0
bin	0	0
bin	7.12e-08	0
bin	1.424e-07	0
bin	2.136e-07	0
bin	2.848e-07	0
bin	3.56e-07	213
bin	4.272e-07	822
bin	4.984e-07	1600
bin	5.696e-07	2621
bin	6.408e-07	3717
bin	7.12e-07	5048
bin	7.832e-07	6496
bin	8.544e-07	7749
bin	9.256e-07	9362
bin	9.968e-07	10656
bin	1.068e-06	12204
bin	1.1392e-06	13553
bin	1.2104e-06	15341
bin	1.2816e-06	17350
bin	1.3528e-06	19769
bin	1.424e-06	22113
bin	1.4952e-06	24663
bin	1.5664e-06	26790
bin	1.6376e-06	28784
bin	1.7088e-06	29604
bin	1.78e-06	30333
bin	1.8512e-06	30526
bin	1.9224e-06	30365
bin	1.9936e-06	29051
bin	2.0648e-06	28338
bin	2.136e-06	26932
bin	2.2072e-06	25775
bin	2.2784e-06	24535
bin	2.3496e-06	23355
bin	2.4208e-06	21839
bin	2.492e-06	20802
bin	2.5632e-06	19697
bin	2.6344e-06	18658
bin	2.7056e-06	17578
bin	2.7768e-06	16610
bin	2.848e-06	15560
bin	2.9192e-06	15186
bin	2.9904e-06	14392
bin	3.0616e-06	13837
bin	3.1328e-06	13302
bin	3.204e-06	12536
bin	3.2752e-06	12196
bin	3.3464e-06	11729
bin	3.4176e-06	11310
bin	3.4888e-06	10992
bin	3.56e-06	10610
bin	3.6312e-06	10641
bin	3.7024e-06	10022
bin	3.7736e-06	9875
bin	3.8448e-06	9450
bin	3.916e-06	9267
bin	3.9872e-06	9067
bin	4.0584e-06	8841
bin	4.1296e-06	8763
bin	4.2008e-06	8278
bin	4.272e-06	8188
bin	4.3432e-06	8312
bin	4.4144e-06	7993
bin	4.4856e-06	7892
bin	4.5568e-06	7873
bin	4.628e-06	7680
bin	4.6992e-06	7521
bin	4.7704e-06	7502
bin	4.8416e-06	7243
bin	4.9128e-06	7268
bin	4.984e-06	7175
bin	5.0552e-06	7087
bin	5.1264e-06	6984
bin	5.1976e-06	7039
bin	5.2688e-06	6917
bin	5.34e-06	6823
bin	5.4112e-06	6834
bin	5.4824e-06	6826
bin	5.5536e-06	6812
bin	5.6248e-06	6592
bin	5.696e-06	6706
bin	5.7672e-06	6480
bin	5.8384e-06	6703
bin	5.9096e-06	6482
bin	5.9808e-06	6474
bin	6.052e-06	6576
bin	6.1232e-06	6370
bin	6.1944e-06	6349
bin	6.2656e-06	6252
bin	6.3368e-06	6295
bin	6.408e-06	6132
bin	6.4792e-06	6265
bin	6.5504e-06	6342
bin	6.6216e-06	6240
bin	6.6928e-06	6131
bin	6.764e-06	6042
bin	6.8352e-06	6057
bin	6.9064e-06	6101
bin	6.9776e-06	6133
bin	7.0488e-06	6144
bin	7.12e-06	6064
bin	7.1912e-06	6161
bin	7.2624e-06	6074
bin	7.3336e-06	6101
bin	7.4048e-06	6002
bin	7.476e-06	5980
bin	7.5472e-06	5893
bin	7.6184e-06	5783
bin	7.6896e-06	5839
bin	7.7608e-06	5877
bin	7.832e-06	6026
bin	7.9032e-06	5870
bin	7.9744e-06	5885
bin	8.0456e-06	5959
bin	8.1168e-06	5986
bin	8.188e-06	5978
bin	8.2592e-06	6024
bin	8.3304e-06	5895
bin	8.4016e-06	5970
bin	8.4728e-06	5837
bin	8.544e-06	5860
bin	8.6152e-06	5935
bin	8.6864e-06	5903
bin	8.7576e-06	5958
bin	8.8288e-06	5940
bin	8.9e-06	5839
bin	8.9712e-06	5821
bin	9.0424e-06	5834
bin	9.1136e-06	5839
bin	9.1848e-06	5890
bin	9.256e-06	6002
bin	9.3272e-06	5898
bin	9.3984e-06	5903
bin	9.4696e-06	5787
bin	9.5408e-06	5838
bin	9.612e-06	5804
bin	9.6832e-06	5681
bin	9.7544e-06	5633
bin	9.8256e-06	5675
bin	9.8968e-06	5781
bin	9.968e-06	5676
bin	1.00392e-05	5643
bin	1.01104e-05	5678
bin	1.01816e-05	5759
bin	1.02528e-05	5751
bin	1.0324e-05	5742
bin	1.03952e-05	5679
bin	1.04664e-05	5805
bin	1.05376e-05	5750
bin	1.06088e-05	5749
bin	1.068e-05	5758
bin	1.07512e-05	5706
bin	1.08224e-05	5761
bin	1.08936e-05	5788
bin	1.09648e-05	5637
bin	1.1036e-05	5730
bin	1.11072e-05	5644
bin	1.11784e-05	5611
bin	1.12496e-05	5584
bin	1.13208e-05	5586
bin	1.1392e-05	5531
bin	1.14632e-05	5511
bin	1.15344e-05	5647
bin	1.16056e-05	5794
bin	1.16768e-05	5612
bin	1.1748e-05	5595
bin	1.18192e-05	5542
bin	1.18904e-05	5648
bin	1.19616e-05	5581
bin	1.20328e-05	5480
bin	1.2104e-05	5643
bin	1.21752e-05	5546
bin	1.22464e-05	5659
bin	1.23176e-05	5612
bin	1.23888e-05	5625
bin	1.246e-05	5665
bin	1.25312e-05	5766
bin	1.26024e-05	5664
bin	1.26736e-05	5730
bin	1.27448e-05	5767
bin	1.2816e-05	5659
bin	1.28872e-05	5713
bin	1.29584e-05	5748
bin	1.30296e-05	5598
bin	1.31008e-05	5603
bin	1.3172e-05	5666
bin	1.32432e-05	5653
bin	1.33144e-05	5753
bin	1.33856e-05	5617
bin	1.34568e-05	5643
bin	1.3528e-05	5628
bin	1.35992e-05	5592
bin	1.36704e-05	5719
bin	1.37416e-05	5712
bin	1.38128e-05	5667
bin	1.3884e-05	5624
bin	1.39552e-05	5668
bin	1.40264e-05	5479
bin	1.40976e-05	5581
bin	1.41688e-05	5322
bin	1.424e-05	5670
bin	1.43112e-05	5473
bin	1.43824e-05	5562
bin	1.44536e-05	5448
bin	1.45248e-05	5559
bin	1.4596e-05	5617
bin	1.46672e-05	5480
bin	1.47384e-05	5516
bin	1.48096e-05	5609
bin	1.48808e-05	5622
bin	1.4952e-05	5644
bin	1.50232e-05	5577
bin	1.50944e-05	5573
bin	1.51656e-05	5555
bin	1.52368e-05	5495
bin	1.5308e-05	5621
bin	1.53792e-05	5510
bin	1.54504e-05	5626
bin	1.55216e-05	5546
bin	1.55928e-05	5466
bin	1.5664e-05	5596
bin	1.57352e-05	5558
bin	1.58064e-05	5454
bin	1.58776e-05	5502
bin	1.59488e-05	5487
bin	1.602e-05	5540
bin	1.60912e-05	5486
bin	1.61624e-05	5462
bin	1.62336e-05	5431
bin	1.63048e-05	5441
bin	1.6376e-05	5456
bin	1.64472e-05	5628
bin	1.65184e-05	5548
bin	1.65896e-05	5608
bin	1.66608e-05	5510
bin	1.6732e-05	5525
bin	1.68032e-05	5359
bin	1.68744e-05	5464
bin	1.69456e-05	5460
bin	1.70168e-05	5332
bin	1.7088e-05	5502
bin	1.71592e-05	5422
bin	1.72304e-05	5613
bin	1.73016e-05	5520
bin	1.73728e-05	5691
bin	1.7444e-05	5478
bin	1.75152e-05	5353
bin	1.75864e-05	5344
bin	1.76576e-05	5326
bin	1.77288e-05	5365
bin	1.78e-05	5369
bin	1.78712e-05	5565
bin	1.79424e-05	5479
bin	1.80136e-05	5407
bin	1.80848e-05	5451
bin	1.8156e-05	5439
bin	1.82272e-05	5430
bin	1.82984e-05	5373
bin	1.83696e-05	5583
bin	1.84408e-05	5452
bin	1.8512e-05	5471
bin	1.85832e-05	5450
bin	1.86544e-05	5601
bin	1.87256e-05	5437
bin	1.87968e-05	5430
bin	1.8868e-05	5300
bin	1.89392e-05	5448
bin	1.90104e-05	5365
bin	1.90816e-05	5481
bin	1.91528e-05	5459
bin	1.9224e-05	5273
bin	1.92952e-05	5415
bin	1.93664e-05	5449
bin	1.94376e-05	5426
bin	1.95088e-05	5409
bin	1.958e-05	5398
bin	1.96512e-05	5475
bin	1.97224e-05	5435
bin	1.97936e-05	5489
bin	1.98648e-05	5420
bin	1.9936e-05	5518
bin	2.00072e-05	5546
bin	2.00784e-05	5461
bin	2.01496e-05	5340
bin	2.02208e-05	5472
bin	2.0292e-05	5452
bin	2.03632e-05	5549
bin	2.04344e-05	5427
bin	2.05056e-05	5400
bin	2.05768e-05	5318
bin	2.0648e-05	5465
bin	2.07192e-05	5587
bin	2.07904e-05	5401
bin	2.08616e-05	5508
bin	2.09328e-05	5482
bin	2.1004e-05	5446
bin	2.10752e-05	5449
bin	2.11464e-05	5516
bin	2.12176e-05	5520
bin	2.12888e-05	5402
bin	2.136e-05	5380
bin	2.14312e-05	5431
bin	2.15024e-05	5446
bin	2.15736e-05	5524
bin	2.16448e-05	5469
bin	2.1716e-05	5428
bin	2.17872e-05	5414
bin	2.18584e-05	5351
bin	2.19296e-05	5567
bin	2.20008e-05	5463
bin	2.2072e-05	5332
bin	2.21432e-05	5324
bin	2.22144e-05	5435
bin	2.22856e-05	5261
bin	2.23568e-05	5513
bin	2.2428e-05	5232
bin	2.24992e-05	5416
bin	2.25704e-05	5310
bin	2.26416e-05	5327
bin	2.27128e-05	5408
bin	2.2784e-05	5378
bin	2.28552e-05	5333
bin	2.29264e-05	5400
bin	2.29976e-05	5531
bin	2.30688e-05	5309
bin	2.314e-05	5289
bin	2.32112e-05	5423
bin	2.32824e-05	5383
bin	2.33536e-05	5383
bin	2.34248e-05	5403
bin	2.3496e-05	5394
bin	2.35672e-05	5506
bin	2.36384e-05	5564
bin	2.37096e-05	5453
bin	2.37808e-05	5372
bin	2.3852e-05	5506
bin	2.39232e-05	5521
bin	2.39944e-05	5381
bin	2.40656e-05	5270
bin	2.41368e-05	5415
bin	2.4208e-05	5504
bin	2.42792e-05	5595
bin	2.43504e-05	5385
bin	2.44216e-05	5377
bin	2.44928e-05	5325
bin	2.4564e-05	5492
bin	2.46352e-05	5394
bin	2.47064e-05	5457
bin	2.47776e-05	5492
bin	2.48488e-05	5415
bin	2.492e-05	5494
bin	2.49912e-05	5513
bin	2.50624e-05	5463
bin	2.51336e-05	5436
bin	2.52048e-05	5675
bin	2.5276e-05	5425
bin	2.53472e-05	5578
bin	2.54184e-05	5425
bin	2.54896e-05	5594
bin	2.55608e-05	5523
bin	2.5632e-05	5415
bin	2.57032e-05	5408
bin	2.57744e-05	5343
bin	2.58456e-05	5468
bin	2.59168e-05	5465
bin	2.5988e-05	5460
bin	2.60592e-05	5474
bin	2.61304e-05	5544
bin	2.62016e-05	5420
bin	2.62728e-05	5398
bin	2.6344e-05	5317
bin	2.64152e-05	5344
bin	2.64864e-05	5369
bin	2.65576e-05	5343
bin	2.66288e-05	5334
bin	2.67e-05	5336
bin	2.67712e-05	5278
bin	2.68424e-05	5405
bin	2.69136e-05	5383
bin	2.69848e-05	5382
bin	2.7056e-05	5477
bin	2.71272e-05	5393
bin	2.71984e-05	5526
bin	2.72696e-05	5420
bin	2.73408e-05	5449
bin	2.7412e-05	5435
bin	2.74832e-05	5371
bin	2.75544e-05	5401
bin	2.76256e-05	5379
bin	2.76968e-05	5423
bin	2.7768e-05	5278
bin	2.78392e-05	5461
bin	2.79104e-05	5420
bin	2.79816e-05	5318
bin	2.80528e-05	5381
bin	2.8124e-05	5355
bin	2.81952e-05	5333
bin	2.82664e-05	5365
bin	2.83376e-05	5392
bin	2.84088e-05	5396
bin	2.848e-05	5248
bin	2.85512e-05	5371
bin	2.86224e-05	5270
bin	2.86936e-05	5367
bin	2.87648e-05	5330
bin	2.8836e-05	5372
bin	2.89072e-05	5458
bin	2.89784e-05	5345
bin	2.90496e-05	5372
bin	2.91208e-05	5349
bin	2.9192e-05	5562
bin	2.92632e-05	5407
bin	2.93344e-05	5414
bin	2.94056e-05	5545
bin	2.94768e-05	5421
bin	2.9548e-05	5416
bin	2.96192e-05	5458
bin	2.96904e-05	5443
bin	2.97616e-05	5474
bin	2.98328e-05	5460
bin	2.9904e-05	5355
bin	2.99752e-05	5474
bin	3.00464e-05	5402
bin	3.01176e-05	5541
bin	3.01888e-05	5304
bin	3.026e-05	5401
bin	3.03312e-05	5429
bin	3.04024e-05	5438
bin	3.04736e-05	5410
bin	3.05448e-05	5400
bin	3.0616e-05	5481
bin	3.06872e-05	5410
bin	3.07584e-05	5357
bin	3.08296e-05	5425
bin	3.09008e-05	5379
bin	3.0972e-05	5377
bin	3.10432e-05	5330
bin	3.11144e-05	5423
bin	3.11856e-05	5365
bin	3.12568e-05	5420
bin	3.1328e-05	5340
bin	3.13992e-05	5321
bin	3.14704e-05	5461
bin	3.15416e-05	5377
bin	3.16128e-05	5389
bin	3.1684e-05	5476
bin	3.17552e-05	5305
bin	3.18264e-05	5459
bin	3.18976e-05	5456
bin	3.19688e-05	5357
bin	3.204e-05	5276
bin	3.21112e-05	5283
bin	3.21824e-05	5410
bin	3.22536e-05	5333
bin	3.23248e-05	5362
bin	3.2396e-05	5299
bin	3.24672e-05	5388
bin	3.25384e-05	5316
bin	3.26096e-05	5284
bin	3.26808e-05	5444
bin	3.2752e-05	5342
bin	3.28232e-05	5292
bin	3.28944e-05	5356
bin	3.29656e-05	5359
bin	3.30368e-05	5381
bin	3.3108e-05	5316
bin	3.31792e-05	5297
bin	3.32504e-05	5392
bin	3.33216e-05	5446
bin	3.33928e-05	5428
bin	3.3464e-05	5452
bin	3.35352e-05	5366
bin	3.36064e-05	5458
bin	3.36776e-05	5441
bin	3.37488e-05	5362
bin	3.382e-05	5428
bin	3.38912e-05	5319
bin	3.39624e-05	5368
bin	3.40336e-05	5412
bin	3.41048e-05	5305
bin	3.4176e-05	5276
bin	3.42472e-05	5388
bin	3.43184e-05	5322
bin	3.43896e-05	5437
bin	3.44608e-05	5310
bin	3.4532e-05	5351
bin	3.46032e-05	5331
bin	3.46744e-05	5412
bin	3.47456e-05	5368
bin	3.48168e-05	5214
bin	3.4888e-05	5184
bin	3.49592e-05	5425
bin	3.50304e-05	5375
bin	3.51016e-05	5482
bin	3.51728e-05	5250
bin	3.5244e-05	5445
bin	3.53152e-05	5381
bin	3.53864e-05	5297
bin	3.54576e-05	5368
bin	3.55288e-05	5392
bin	3.56e-05	2965256
statistic Torus3d_bub.timer 	"Life Times"
field count 6291456
field mean 0.00049100516177002
field stddev 0.00033690203699689
field sum 3089.137371049
field sqrsum 2.2308813015717
field min 2.35999999e-07
field max 0.001723873999998
bin	-INF	0
bin	0	25
bin	8.544e-07	265
bin	1.7088e-06	851
bin	2.5632e-06	1618
bin	3.4176e-06	2453
bin	4.272e-06	3417
bin	5.1264e-06	4427
bin	5.9808e-06	5429
bin	6.8352e-06	6276
bin	7.6896e-06	7557
bin	8.544e-06	8691
bin	9.3984e-06	10044
bin	1.02528e-05	11049
bin	1.11072e-05	11768
bin	1.19616e-05	12776
bin	1.2816e-05	13728
bin	1.36704e-05	14587
bin	1.45248e-05	15385
bin	1.53792e-05	16440
bin	1.62336e-05	17068
bin	1.7088e-05	18261
bin	1.79424e-05	18837
bin	1.87968e-05	19524
bin	1.96512e-05	20834
bin	2.05056e-05	21679
bin	2.136e-05	23149
bin	2.22144e-05	23680
bin	2.30688e-05	24491
bin	2.39232e-05	25640
bin	2.47776e-05	26204
bin	2.5632e-05	25649
bin	2.64864e-05	24902
bin	2.73408e-05	23743
bin	2.81952e-05	22698
bin	2.90496e-05	21387
bin	2.9904e-05	20157
bin	3.07584e-05	18980
bin	3.16128e-05	17779
bin	3.24672e-05	16611
bin	3.33216e-05	15477
bin	3.4176e-05	14437
bin	3.50304e-05	13501
bin	3.58848e-05	12708
bin	3.67392e-05	11706
bin	3.75936e-05	11153
bin	3.8448e-05	10894
bin	3.93024e-05	10409
bin	4.01568e-05	10014
bin	4.10112e-05	9806
bin	4.18656e-05	9660
bin	4.272e-05	9274
bin	4.35744e-05	9197
bin	4.44288e-05	9049
bin	4.52832e-05	9077
bin	4.61376e-05	8828
bin	4.6992e-05	8742
bin	4.78464e-05	8585
bin	4.87008e-05	8417
bin	4.95552e-05	8445
bin	5.04096e-05	8368
bin	5.1264e-05	8201
bin	5.21184e-05	7882
bin	5.29728e-05	7509
bin	5.38272e-05	7470
bin	5.46816e-05	7376
bin	5.5536e-05	7068
bin	5.63904e-05	6959
bin	5.72448e-05	6720
bin	5.80992e-05	6732
bin	5.89536e-05	6454
bin	5.9808e-05	6352
bin	6.06624e-05	6244
bin	6.15168e-05	6041
bin	6.23712e-05	6016
bin	6.32256e-05	5862
bin	6.408e-05	5987
bin	6.49344e-05	5862
bin	6.57888e-05	5631
bin	6.66432e-05	5781
bin	6.74976e-05	5658
bin	6.8352e-05	5584
bin	6.92064e-05	5422
bin	7.00608e-05	5672
bin	7.09152e-05	5475
bin	7.17696e-05	5566
bin	7.2624e-05	5540
bin	7.34784e-05	5673
bin	7.43328e-05	5580
bin	7.51872e-05	5505
bin	7.60416e-05	5625
bin	7.6896e-05	5524
bin	7.77504e-05	5433
bin	7.86048e-05	5346
bin	7.94592e-05	5414
bin	8.03136e-05	5457
bin	8.1168e-05	5324
bin	8.20224e-05	5168
bin	8.28768e-05	5258
bin	8.37312e-05	5264
bin	8.45856e-05	5206
bin	8.544e-05	5151
bin	8.62944e-05	5017
bin	8.71488e-05	5048
bin	8.80032e-05	5097
bin	8.88576e-05	5008
bin	8.9712e-05	5008
bin	9.05664e-05	5130
bin	9.14208e-05	5059
bin	9.22752e-05	5087
bin	9.31296e-05	5052
bin	9.3984e-05	4985
bin	9.48384e-05	4990
bin	9.56928e-05	5012
bin	9.65472e-05	5002
bin	9.74016e-05	5018
bin	9.8256e-05	5033
bin	9.91104e-05	5109
bin	9.99648e-05	5096
bin	0.0001008192	5055
bin	0.0001016736	5226
bin	0.000102528	5120
bin	0.0001033824	5141
bin	0.0001042368	5039
bin	0.0001050912	5093
bin	0.0001059456	4967
bin	0.0001068	5038
bin	0.0001076544	4930
bin	0.0001085088	5033
bin	0.0001093632	4902
bin	0.0001102176	4933
bin	0.000111072	4973
bin	0.0001119264	4976
bin	0.0001127808	4939
bin	0.0001136352	4910
bin	0.0001144896	5021
bin	0.000115344	5106
bin	0.0001161984	4981
bin	0.0001170528	4896
bin	0.0001179072	4980
bin	0.0001187616	4959
bin	0.000119616	4927
bin	0.0001204704	5017
bin	0.0001213248	4963
bin	0.0001221792	4938
bin	0.0001230336	5039
bin	0.000123888	4863
bin	0.0001247424	4898
bin	0.0001255968	5041
bin	0.0001264512	4876
bin	0.0001273056	4838
bin	0.00012816	4910
bin	0.0001290144	4861
bin	0.0001298688	4965
bin	0.0001307232	4835
bin	0.0001315776	4870
bin	0.000132432	4785
bin	0.0001332864	4793
bin	0.0001341408	4724
bin	0.0001349952	4873
bin	0.0001358496	4849
bin	0.000136704	4863
bin	0.0001375584	4891
bin	0.0001384128	4954
bin	0.0001392672	4866
bin	0.0001401216	4856
bin	0.000140976	4894
bin	0.0001418304	4806
bin	0.0001426848	4810
bin	0.0001435392	4802
bin	0.0001443936	4794
bin	0.000145248	4786
bin	0.0001461024	4746
bin	0.0001469568	4832
bin	0.0001478112	4834
bin	0.0001486656	4809
bin	0.00014952	4804
bin	0.0001503744	4787
bin	0.0001512288	4847
bin	0.0001520832	4778
bin	0.0001529376	4794
bin	0.000153792	4781
bin	0.0001546464	4905
bin	0.0001555008	4800
bin	0.0001563552	4829
bin	0.0001572096	4902
bin	0.000158064	4839
bin	0.0001589184	4850
bin	0.0001597728	4881
bin	0.0001606272	4769
bin	0.0001614816	4692
bin	0.000162336	4814
bin	0.0001631904	4752
bin	0.0001640448	4691
bin	0.0001648992	4689
bin	0.0001657536	4666
bin	0.000166608	4771
bin	0.0001674624	4740
bin	0.0001683168	4770
bin	0.0001691712	4760
bin	0.0001700256	4773
bin	0.00017088	4774
bin	0.0001717344	4707
bin	0.0001725888	4810
bin	0.0001734432	4751
bin	0.0001742976	4767
bin	0.000175152	4807
bin	0.0001760064	4811
bin	0.0001768608	4710
bin	0.0001777152	4775
bin	0.0001785696	4623
bin	0.000179424	4724
bin	0.0001802784	4700
bin	0.0001811328	4672
bin	0.0001819872	4620
bin	0.0001828416	4626
bin	0.000183696	4780
bin	0.0001845504	4624
bin	0.0001854048	4569
bin	0.0001862592	4612
bin	0.0001871136	4672
bin	0.000187968	4657
bin	0.0001888224	4497
bin	0.0001896768	4608
bin	0.0001905312	4544
bin	0.0001913856	4699
bin	0.00019224	4573
bin	0.0001930944	4573
bin	0.0001939488	4560
bin	0.0001948032	4455
bin	0.0001956576	4574
bin	0.000196512	4552
bin	0.0001973664	4594
bin	0.0001982208	4457
bin	0.0001990752	4453
bin	0.0001999296	4392
bin	0.000200784	4478
bin	0.0002016384	4467
bin	0.0002024928	4518
bin	0.0002033472	4682
bin	0.0002042016	4565
bin	0.000205056	4595
bin	0.0002059104	4555
bin	0.0002067648	4525
bin	0.0002076192	4499
bin	0.0002084736	4485
bin	0.000209328	4464
bin	0.0002101824	4443
bin	0.0002110368	4397
bin	0.0002118912	4356
bin	0.0002127456	4367
bin	0.0002136	4519
bin	0.0002144544	4491
bin	0.0002153088	4537
bin	0.0002161632	4457
bin	0.0002170176	4450
bin	0.000217872	4474
bin	0.0002187264	4494
bin	0.0002195808	4520
bin	0.0002204352	4560
bin	0.0002212896	4487
bin	0.000222144	4467
bin	0.0002229984	4477
bin	0.0002238528	4374
bin	0.0002247072	4427
bin	0.0002255616	4588
bin	0.000226416	4453
bin	0.0002272704	4484
bin	0.0002281248	4356
bin	0.0002289792	4555
bin	0.0002298336	4460
bin	0.000230688	4457
bin	0.0002315424	4546
bin	0.0002323968	4670
bin	0.0002332512	4453
bin	0.0002341056	4403
bin	0.00023496	4482
bin	0.0002358144	4448
bin	0.0002366688	4445
bin	0.0002375232	4496
bin	0.0002383776	4526
bin	0.000239232	4490
bin	0.0002400864	4512
bin	0.0002409408	4504
bin	0.0002417952	4521
bin	0.0002426496	4547
bin	0.000243504	4576
bin	0.0002443584	4467
bin	0.0002452128	4627
bin	0.0002460672	4576
bin	0.0002469216	4582
bin	0.000247776	4568
bin	0.0002486304	4607
bin	0.0002494848	4628
bin	0.0002503392	4600
bin	0.0002511936	4627
bin	0.000252048	4624
bin	0.0002529024	4598
bin	0.0002537568	4652
bin	0.0002546112	4631
bin	0.0002554656	4586
bin	0.00025632	4605
bin	0.0002571744	4468
bin	0.0002580288	4499
bin	0.0002588832	4512
bin	0.0002597376	4561
bin	0.000260592	4507
bin	0.0002614464	4604
bin	0.0002623008	4579
bin	0.0002631552	4610
bin	0.0002640096	4467
bin	0.000264864	4399
bin	0.0002657184	4501
bin	0.0002665728	4631
bin	0.0002674272	4470
bin	0.0002682816	4550
bin	0.000269136	4538
bin	0.0002699904	4581
bin	0.0002708448	4550
bin	0.0002716992	4516
bin	0.0002725536	4573
bin	0.000273408	4475
bin	0.0002742624	4478
bin	0.0002751168	4391
bin	0.0002759712	4596
bin	0.0002768256	4469
bin	0.00027768	4567
bin	0.0002785344	4484
bin	0.0002793888	4602
bin	0.0002802432	4533
bin	0.0002810976	4614
bin	0.000281952	4575
bin	0.0002828064	4591
bin	0.0002836608	4446
bin	0.0002845152	4556
bin	0.0002853696	4514
bin	0.000286224	4512
bin	0.0002870784	4509
bin	0.0002879328	4590
bin	0.0002887872	4577
bin	0.0002896416	4616
bin	0.000290496	4547
bin	0.0002913504	4557
bin	0.0002922048	4642
bin	0.0002930592	4593
bin	0.0002939136	4580
bin	0.000294768	4599
bin	0.0002956224	4465
bin	0.0002964768	4491
bin	0.0002973312	4612
bin	0.0002981856	4574
bin	0.00029904	4646
bin	0.0002998944	4616
bin	0.0003007488	4514
bin	0.0003016032	4534
bin	0.0003024576	4598
bin	0.000303312	4513
bin	0.0003041664	4474
bin	0.0003050208	4534
bin	0.0003058752	4570
bin	0.0003067296	4614
bin	0.000307584	4553
bin	0.0003084384	4534
bin	0.0003092928	4421
bin	0.0003101472	4550
bin	0.0003110016	4443
bin	0.000311856	4542
bin	0.0003127104	4644
bin	0.0003135648	4613
bin	0.0003144192	4526
bin	0.0003152736	4462
bin	0.000316128	4358
bin	0.0003169824	4363
bin	0.0003178368	4406
bin	0.0003186912	4604
bin	0.0003195456	4601
bin	0.0003204	4534
bin	0.0003212544	4474
bin	0.0003221088	4581
bin	0.0003229632	4541
bin	0.0003238176	4450
bin	0.000324672	4473
bin	0.0003255264	4600
bin	0.0003263808	4486
bin	0.0003272352	4498
bin	0.0003280896	4523
bin	0.000328944	4384
bin	0.0003297984	4580
bin	0.0003306528	4623
bin	0.0003315072	4556
bin	0.0003323616	4434
bin	0.000333216	4599
bin	0.0003340704	4497
bin	0.0003349248	4531
bin	0.0003357792	4506
bin	0.0003366336	4468
bin	0.000337488	4486
bin	0.0003383424	4451
bin	0.0003391968	4500
bin	0.0003400512	4581
bin	0.0003409056	4485
bin	0.00034176	4445
bin	0.0003426144	4542
bin	0.0003434688	4534
bin	0.0003443232	4518
bin	0.0003451776	4560
bin	0.000346032	4432
bin	0.0003468864	4495
bin	0.0003477408	4508
bin	0.0003485952	4618
bin	0.0003494496	4546
bin	0.000350304	4584
bin	0.0003511584	4534
bin	0.0003520128	4656
bin	0.0003528672	4543
bin	0.0003537216	4562
bin	0.000354576	4541
bin	0.0003554304	4606
bin	0.0003562848	4709
bin	0.0003571392	4569
bin	0.0003579936	4543
bin	0.000358848	4679
bin	0.0003597024	4606
bin	0.0003605568	4585
bin	0.0003614112	4588
bin	0.0003622656	4732
bin	0.00036312	4554
bin	0.0003639744	4534
bin	0.0003648288	4611
bin	0.0003656832	4641
bin	0.0003665376	4603
bin	0.000367392	4565
bin	0.0003682464	4616
bin	0.0003691008	4618
bin	0.0003699552	4530
bin	0.0003708096	4564
bin	0.000371664	4469
bin	0.0003725184	4503
bin	0.0003733728	4511
bin	0.0003742272	4433
bin	0.0003750816	4413
bin	0.000375936	4431
bin	0.0003767904	4456
bin	0.0003776448	4395
bin	0.0003784992	4382
bin	0.0003793536	4591
bin	0.000380208	4536
bin	0.0003810624	4400
bin	0.0003819168	4560
bin	0.0003827712	4648
bin	0.0003836256	4450
bin	0.00038448	4441
bin	0.0003853344	4553
bin	0.0003861888	4439
bin	0.0003870432	4495
bin	0.0003878976	4431
bin	0.000388752	4341
bin	0.0003896064	4552
bin	0.0003904608	4482
bin	0.0003913152	4423
bin	0.0003921696	4499
bin	0.000393024	4484
bin	0.0003938784	4417
bin	0.0003947328	4425
bin	0.0003955872	4584
bin	0.0003964416	4457
bin	0.000397296	4575
bin	0.0003981504	4568
bin	0.0003990048	4388
bin	0.0003998592	4529
bin	0.0004007136	4462
bin	0.000401568	4460
bin	0.0004024224	4478
bin	0.0004032768	4429
bin	0.0004041312	4367
bin	0.0004049856	4304
bin	0.00040584	4537
bin	0.0004066944	4515
bin	0.0004075488	4567
bin	0.0004084032	4565
bin	0.0004092576	4577
bin	0.000410112	4636
bin	0.0004109664	4561
bin	0.0004118208	4553
bin	0.0004126752	4589
bin	0.0004135296	4643
bin	0.000414384	4472
bin	0.0004152384	4522
bin	0.0004160928	4487
bin	0.0004169472	4560
bin	0.0004178016	4560
bin	0.000418656	4546
bin	0.0004195104	4504
bin	0.0004203648	4675
bin	0.0004212192	4596
bin	0.0004220736	4621
bin	0.000422928	4613
bin	0.0004237824	4483
bin	0.0004246368	4556
bin	0.0004254912	4506
bin	0.0004263456	4561
bin	0.0004272	3401813
