version 2
run Uniform-58-20120709-17:50:45-24826
attr alg 2
attr buf 8
attr configname Uniform
attr datetime 20120709-17:50:45
attr delta 1
attr experiment Uniform
attr ext false
attr inifile altro.ini
attr iterationvars "$buf=8, $ext=false, $ofedge=1, $delta=1, $alg=2"
attr iterationvars2 "$buf=8, $ext=false, $ofedge=1, $delta=1, $alg=2, $repetition=0"
attr measurement "$buf=8, $ext=false, $ofedge=1, $delta=1, $alg=2"
attr network Torus3d_bub
attr ofedge 1
attr processid 24826
attr repetition 0
attr replication #0
attr resultdir altro-results
attr runnumber 58
attr seedset 58

scalar . 	alg 	2
scalar . 	buf 	8
scalar . 	delta 	1
scalar . 	ofedge 	1
scalar Torus3d_bub.timer 	#endTime 	0.001824917663841
scalar Torus3d_bub.timer 	#totalHops 	89527940
scalar Torus3d_bub.timer 	#totalPacks 	6291456
scalar Torus3d_bub.timer 	#totalDerouted 	1973107
scalar Torus3d_bub.timer 	#totalOutFlanked 	0
scalar Torus3d_bub.timer 	#totalCQRed 	1973107
scalar Torus3d_bub.timer 	#LB 	0.000786432
scalar Torus3d_bub.timer 	#ratio 	0.43094108604591
statistic Torus3d_bub.timer 	"Hop Times"
field count 6289632
field mean 3.9910136545805e-05
field stddev 4.1637642251765e-05
field sum 251.02007194286
field sqrsum 0.020922536171046
field min 3.76958333e-07
field max 0.001102772666666
bin	-INF	0
bin	0	0
bin	7.12e-08	0
bin	1.424e-07	0
bin	2.136e-07	0
bin	2.848e-07	0
bin	3.56e-07	239
bin	4.272e-07	978
bin	4.984e-07	1706
bin	5.696e-07	2728
bin	6.408e-07	3897
bin	7.12e-07	5296
bin	7.832e-07	6883
bin	8.544e-07	8185
bin	9.256e-07	9587
bin	9.968e-07	11143
bin	1.068e-06	12585
bin	1.1392e-06	14354
bin	1.2104e-06	16204
bin	1.2816e-06	18709
bin	1.3528e-06	20885
bin	1.424e-06	23707
bin	1.4952e-06	26310
bin	1.5664e-06	28705
bin	1.6376e-06	30338
bin	1.7088e-06	31826
bin	1.78e-06	31997
bin	1.8512e-06	32298
bin	1.9224e-06	31611
bin	1.9936e-06	31079
bin	2.0648e-06	30044
bin	2.136e-06	28383
bin	2.2072e-06	27291
bin	2.2784e-06	25784
bin	2.3496e-06	24569
bin	2.4208e-06	23158
bin	2.492e-06	21819
bin	2.5632e-06	20594
bin	2.6344e-06	19378
bin	2.7056e-06	18623
bin	2.7768e-06	17739
bin	2.848e-06	16432
bin	2.9192e-06	15714
bin	2.9904e-06	15056
bin	3.0616e-06	14437
bin	3.1328e-06	13618
bin	3.204e-06	13032
bin	3.2752e-06	12654
bin	3.3464e-06	12222
bin	3.4176e-06	11882
bin	3.4888e-06	11517
bin	3.56e-06	11002
bin	3.6312e-06	10623
bin	3.7024e-06	10284
bin	3.7736e-06	10083
bin	3.8448e-06	9800
bin	3.916e-06	9566
bin	3.9872e-06	9306
bin	4.0584e-06	9240
bin	4.1296e-06	8921
bin	4.2008e-06	8700
bin	4.272e-06	8584
bin	4.3432e-06	8264
bin	4.4144e-06	8236
bin	4.4856e-06	8213
bin	4.5568e-06	8075
bin	4.628e-06	8000
bin	4.6992e-06	7808
bin	4.7704e-06	7711
bin	4.8416e-06	7449
bin	4.9128e-06	7446
bin	4.984e-06	7282
bin	5.0552e-06	7238
bin	5.1264e-06	7408
bin	5.1976e-06	7088
bin	5.2688e-06	7054
bin	5.34e-06	6938
bin	5.4112e-06	6917
bin	5.4824e-06	6719
bin	5.5536e-06	6736
bin	5.6248e-06	6679
bin	5.696e-06	6667
bin	5.7672e-06	6545
bin	5.8384e-06	6552
bin	5.9096e-06	6664
bin	5.9808e-06	6587
bin	6.052e-06	6471
bin	6.1232e-06	6509
bin	6.1944e-06	6341
bin	6.2656e-06	6331
bin	6.3368e-06	6206
bin	6.408e-06	6207
bin	6.4792e-06	6252
bin	6.5504e-06	6207
bin	6.6216e-06	6101
bin	6.6928e-06	6175
bin	6.764e-06	6050
bin	6.8352e-06	6156
bin	6.9064e-06	6122
bin	6.9776e-06	6022
bin	7.0488e-06	6046
bin	7.12e-06	6065
bin	7.1912e-06	6208
bin	7.2624e-06	6071
bin	7.3336e-06	5993
bin	7.4048e-06	5990
bin	7.476e-06	6073
bin	7.5472e-06	6028
bin	7.6184e-06	6141
bin	7.6896e-06	5972
bin	7.7608e-06	5915
bin	7.832e-06	5956
bin	7.9032e-06	5873
bin	7.9744e-06	5816
bin	8.0456e-06	5848
bin	8.1168e-06	5869
bin	8.188e-06	5880
bin	8.2592e-06	5686
bin	8.3304e-06	5795
bin	8.4016e-06	5916
bin	8.4728e-06	5848
bin	8.544e-06	5813
bin	8.6152e-06	5754
bin	8.6864e-06	5875
bin	8.7576e-06	5767
bin	8.8288e-06	5976
bin	8.9e-06	5866
bin	8.9712e-06	5874
bin	9.0424e-06	5750
bin	9.1136e-06	5759
bin	9.1848e-06	5692
bin	9.256e-06	5639
bin	9.3272e-06	5572
bin	9.3984e-06	5732
bin	9.4696e-06	5728
bin	9.5408e-06	5752
bin	9.612e-06	5686
bin	9.6832e-06	5614
bin	9.7544e-06	5765
bin	9.8256e-06	5697
bin	9.8968e-06	5648
bin	9.968e-06	5552
bin	1.00392e-05	5661
bin	1.01104e-05	5839
bin	1.01816e-05	5669
bin	1.02528e-05	5661
bin	1.0324e-05	5704
bin	1.03952e-05	5649
bin	1.04664e-05	5604
bin	1.05376e-05	5470
bin	1.06088e-05	5623
bin	1.068e-05	5637
bin	1.07512e-05	5493
bin	1.08224e-05	5503
bin	1.08936e-05	5563
bin	1.09648e-05	5620
bin	1.1036e-05	5581
bin	1.11072e-05	5618
bin	1.11784e-05	5653
bin	1.12496e-05	5438
bin	1.13208e-05	5462
bin	1.1392e-05	5623
bin	1.14632e-05	5607
bin	1.15344e-05	5649
bin	1.16056e-05	5603
bin	1.16768e-05	5575
bin	1.1748e-05	5721
bin	1.18192e-05	5699
bin	1.18904e-05	5610
bin	1.19616e-05	5649
bin	1.20328e-05	5572
bin	1.2104e-05	5643
bin	1.21752e-05	5674
bin	1.22464e-05	5683
bin	1.23176e-05	5634
bin	1.23888e-05	5752
bin	1.246e-05	5592
bin	1.25312e-05	5639
bin	1.26024e-05	5568
bin	1.26736e-05	5729
bin	1.27448e-05	5652
bin	1.2816e-05	5768
bin	1.28872e-05	5765
bin	1.29584e-05	5864
bin	1.30296e-05	5651
bin	1.31008e-05	5762
bin	1.3172e-05	5709
bin	1.32432e-05	5595
bin	1.33144e-05	5544
bin	1.33856e-05	5585
bin	1.34568e-05	5541
bin	1.3528e-05	5461
bin	1.35992e-05	5515
bin	1.36704e-05	5500
bin	1.37416e-05	5523
bin	1.38128e-05	5538
bin	1.3884e-05	5569
bin	1.39552e-05	5483
bin	1.40264e-05	5698
bin	1.40976e-05	5675
bin	1.41688e-05	5639
bin	1.424e-05	5716
bin	1.43112e-05	5792
bin	1.43824e-05	5830
bin	1.44536e-05	5765
bin	1.45248e-05	5630
bin	1.4596e-05	5630
bin	1.46672e-05	5654
bin	1.47384e-05	5587
bin	1.48096e-05	5660
bin	1.48808e-05	5637
bin	1.4952e-05	5574
bin	1.50232e-05	5527
bin	1.50944e-05	5485
bin	1.51656e-05	5657
bin	1.52368e-05	5537
bin	1.5308e-05	5723
bin	1.53792e-05	5589
bin	1.54504e-05	5526
bin	1.55216e-05	5584
bin	1.55928e-05	5589
bin	1.5664e-05	5601
bin	1.57352e-05	5410
bin	1.58064e-05	5592
bin	1.58776e-05	5581
bin	1.59488e-05	5635
bin	1.602e-05	5626
bin	1.60912e-05	5649
bin	1.61624e-05	5769
bin	1.62336e-05	5599
bin	1.63048e-05	5716
bin	1.6376e-05	5731
bin	1.64472e-05	5559
bin	1.65184e-05	5585
bin	1.65896e-05	5590
bin	1.66608e-05	5476
bin	1.6732e-05	5594
bin	1.68032e-05	5437
bin	1.68744e-05	5457
bin	1.69456e-05	5499
bin	1.70168e-05	5628
bin	1.7088e-05	5573
bin	1.71592e-05	5462
bin	1.72304e-05	5576
bin	1.73016e-05	5547
bin	1.73728e-05	5565
bin	1.7444e-05	5587
bin	1.75152e-05	5592
bin	1.75864e-05	5532
bin	1.76576e-05	5569
bin	1.77288e-05	5638
bin	1.78e-05	5546
bin	1.78712e-05	5621
bin	1.79424e-05	5659
bin	1.80136e-05	5542
bin	1.80848e-05	5509
bin	1.8156e-05	5640
bin	1.82272e-05	5526
bin	1.82984e-05	5377
bin	1.83696e-05	5484
bin	1.84408e-05	5577
bin	1.8512e-05	5600
bin	1.85832e-05	5594
bin	1.86544e-05	5495
bin	1.87256e-05	5420
bin	1.87968e-05	5508
bin	1.8868e-05	5380
bin	1.89392e-05	5512
bin	1.90104e-05	5503
bin	1.90816e-05	5605
bin	1.91528e-05	5534
bin	1.9224e-05	5531
bin	1.92952e-05	5563
bin	1.93664e-05	5508
bin	1.94376e-05	5545
bin	1.95088e-05	5561
bin	1.958e-05	5541
bin	1.96512e-05	5407
bin	1.97224e-05	5663
bin	1.97936e-05	5430
bin	1.98648e-05	5466
bin	1.9936e-05	5520
bin	2.00072e-05	5495
bin	2.00784e-05	5361
bin	2.01496e-05	5571
bin	2.02208e-05	5628
bin	2.0292e-05	5564
bin	2.03632e-05	5486
bin	2.04344e-05	5509
bin	2.05056e-05	5555
bin	2.05768e-05	5423
bin	2.0648e-05	5545
bin	2.07192e-05	5524
bin	2.07904e-05	5462
bin	2.08616e-05	5440
bin	2.09328e-05	5480
bin	2.1004e-05	5579
bin	2.10752e-05	5497
bin	2.11464e-05	5363
bin	2.12176e-05	5390
bin	2.12888e-05	5419
bin	2.136e-05	5369
bin	2.14312e-05	5434
bin	2.15024e-05	5574
bin	2.15736e-05	5470
bin	2.16448e-05	5314
bin	2.1716e-05	5425
bin	2.17872e-05	5510
bin	2.18584e-05	5449
bin	2.19296e-05	5455
bin	2.20008e-05	5319
bin	2.2072e-05	5507
bin	2.21432e-05	5496
bin	2.22144e-05	5433
bin	2.22856e-05	5400
bin	2.23568e-05	5550
bin	2.2428e-05	5443
bin	2.24992e-05	5505
bin	2.25704e-05	5386
bin	2.26416e-05	5541
bin	2.27128e-05	5414
bin	2.2784e-05	5497
bin	2.28552e-05	5452
bin	2.29264e-05	5486
bin	2.29976e-05	5386
bin	2.30688e-05	5412
bin	2.314e-05	5416
bin	2.32112e-05	5496
bin	2.32824e-05	5492
bin	2.33536e-05	5422
bin	2.34248e-05	5582
bin	2.3496e-05	5372
bin	2.35672e-05	5340
bin	2.36384e-05	5474
bin	2.37096e-05	5437
bin	2.37808e-05	5402
bin	2.3852e-05	5335
bin	2.39232e-05	5532
bin	2.39944e-05	5429
bin	2.40656e-05	5330
bin	2.41368e-05	5294
bin	2.4208e-05	5549
bin	2.42792e-05	5485
bin	2.43504e-05	5339
bin	2.44216e-05	5419
bin	2.44928e-05	5361
bin	2.4564e-05	5355
bin	2.46352e-05	5260
bin	2.47064e-05	5374
bin	2.47776e-05	5322
bin	2.48488e-05	5306
bin	2.492e-05	5427
bin	2.49912e-05	5360
bin	2.50624e-05	5284
bin	2.51336e-05	5344
bin	2.52048e-05	5375
bin	2.5276e-05	5498
bin	2.53472e-05	5321
bin	2.54184e-05	5440
bin	2.54896e-05	5493
bin	2.55608e-05	5297
bin	2.5632e-05	5411
bin	2.57032e-05	5286
bin	2.57744e-05	5283
bin	2.58456e-05	5208
bin	2.59168e-05	5294
bin	2.5988e-05	5285
bin	2.60592e-05	5299
bin	2.61304e-05	5426
bin	2.62016e-05	5370
bin	2.62728e-05	5549
bin	2.6344e-05	5380
bin	2.64152e-05	5384
bin	2.64864e-05	5343
bin	2.65576e-05	5300
bin	2.66288e-05	5373
bin	2.67e-05	5508
bin	2.67712e-05	5325
bin	2.68424e-05	5500
bin	2.69136e-05	5500
bin	2.69848e-05	5399
bin	2.7056e-05	5508
bin	2.71272e-05	5468
bin	2.71984e-05	5484
bin	2.72696e-05	5579
bin	2.73408e-05	5538
bin	2.7412e-05	5525
bin	2.74832e-05	5536
bin	2.75544e-05	5581
bin	2.76256e-05	5544
bin	2.76968e-05	5503
bin	2.7768e-05	5402
bin	2.78392e-05	5460
bin	2.79104e-05	5497
bin	2.79816e-05	5424
bin	2.80528e-05	5497
bin	2.8124e-05	5417
bin	2.81952e-05	5259
bin	2.82664e-05	5283
bin	2.83376e-05	5437
bin	2.84088e-05	5367
bin	2.848e-05	5355
bin	2.85512e-05	5152
bin	2.86224e-05	5305
bin	2.86936e-05	5276
bin	2.87648e-05	5257
bin	2.8836e-05	5280
bin	2.89072e-05	5262
bin	2.89784e-05	5262
bin	2.90496e-05	5220
bin	2.91208e-05	5252
bin	2.9192e-05	5194
bin	2.92632e-05	5151
bin	2.93344e-05	5313
bin	2.94056e-05	5304
bin	2.94768e-05	5222
bin	2.9548e-05	5309
bin	2.96192e-05	5221
bin	2.96904e-05	5269
bin	2.97616e-05	5283
bin	2.98328e-05	5223
bin	2.9904e-05	5260
bin	2.99752e-05	5323
bin	3.00464e-05	5314
bin	3.01176e-05	5277
bin	3.01888e-05	5288
bin	3.026e-05	5252
bin	3.03312e-05	5333
bin	3.04024e-05	5169
bin	3.04736e-05	5427
bin	3.05448e-05	5228
bin	3.0616e-05	5237
bin	3.06872e-05	5442
bin	3.07584e-05	5373
bin	3.08296e-05	5303
bin	3.09008e-05	5249
bin	3.0972e-05	5415
bin	3.10432e-05	5404
bin	3.11144e-05	5269
bin	3.11856e-05	5415
bin	3.12568e-05	5382
bin	3.1328e-05	5343
bin	3.13992e-05	5294
bin	3.14704e-05	5272
bin	3.15416e-05	5334
bin	3.16128e-05	5382
bin	3.1684e-05	5400
bin	3.17552e-05	5466
bin	3.18264e-05	5321
bin	3.18976e-05	5502
bin	3.19688e-05	5303
bin	3.204e-05	5283
bin	3.21112e-05	5399
bin	3.21824e-05	5338
bin	3.22536e-05	5402
bin	3.23248e-05	5357
bin	3.2396e-05	5446
bin	3.24672e-05	5357
bin	3.25384e-05	5476
bin	3.26096e-05	5451
bin	3.26808e-05	5516
bin	3.2752e-05	5306
bin	3.28232e-05	5461
bin	3.28944e-05	5361
bin	3.29656e-05	5415
bin	3.30368e-05	5443
bin	3.3108e-05	5321
bin	3.31792e-05	5375
bin	3.32504e-05	5505
bin	3.33216e-05	5453
bin	3.33928e-05	5356
bin	3.3464e-05	5317
bin	3.35352e-05	5209
bin	3.36064e-05	5479
bin	3.36776e-05	5548
bin	3.37488e-05	5395
bin	3.382e-05	5548
bin	3.38912e-05	5622
bin	3.39624e-05	5455
bin	3.40336e-05	5415
bin	3.41048e-05	5482
bin	3.4176e-05	5451
bin	3.42472e-05	5416
bin	3.43184e-05	5219
bin	3.43896e-05	5299
bin	3.44608e-05	5391
bin	3.4532e-05	5390
bin	3.46032e-05	5402
bin	3.46744e-05	5502
bin	3.47456e-05	5458
bin	3.48168e-05	5416
bin	3.4888e-05	5584
bin	3.49592e-05	5317
bin	3.50304e-05	5458
bin	3.51016e-05	5594
bin	3.51728e-05	5509
bin	3.5244e-05	5330
bin	3.53152e-05	5477
bin	3.53864e-05	5433
bin	3.54576e-05	5461
bin	3.55288e-05	5414
bin	3.56e-05	2915949
statistic Torus3d_bub.timer 	"Life Times"
field count 6291456
field mean 0.00048245777419646
field stddev 0.0003342593140774
field sum 3035.3618582149
field sqrsum 2.1673737202195
field min 1.64e-07
field max 0.001699973999915
bin	-INF	0
bin	0	65
bin	8.544e-07	367
bin	1.7088e-06	1015
bin	2.5632e-06	1870
bin	3.4176e-06	2838
bin	4.272e-06	3760
bin	5.1264e-06	4786
bin	5.9808e-06	5713
bin	6.8352e-06	6879
bin	7.6896e-06	8098
bin	8.544e-06	9281
bin	9.3984e-06	10571
bin	1.02528e-05	11595
bin	1.11072e-05	12321
bin	1.19616e-05	13328
bin	1.2816e-05	14432
bin	1.36704e-05	15441
bin	1.45248e-05	16402
bin	1.53792e-05	17458
bin	1.62336e-05	18322
bin	1.7088e-05	18993
bin	1.79424e-05	20069
bin	1.87968e-05	21009
bin	1.96512e-05	21948
bin	2.05056e-05	23241
bin	2.136e-05	24097
bin	2.22144e-05	25256
bin	2.30688e-05	26025
bin	2.39232e-05	26902
bin	2.47776e-05	27514
bin	2.5632e-05	27218
bin	2.64864e-05	26086
bin	2.73408e-05	25150
bin	2.81952e-05	23723
bin	2.90496e-05	22565
bin	2.9904e-05	21411
bin	3.07584e-05	19904
bin	3.16128e-05	18509
bin	3.24672e-05	17360
bin	3.33216e-05	16276
bin	3.4176e-05	15252
bin	3.50304e-05	13909
bin	3.58848e-05	13148
bin	3.67392e-05	12467
bin	3.75936e-05	11788
bin	3.8448e-05	11426
bin	3.93024e-05	10824
bin	4.01568e-05	10337
bin	4.10112e-05	10102
bin	4.18656e-05	9857
bin	4.272e-05	9530
bin	4.35744e-05	9435
bin	4.44288e-05	9413
bin	4.52832e-05	9131
bin	4.61376e-05	9021
bin	4.6992e-05	8813
bin	4.78464e-05	8720
bin	4.87008e-05	8814
bin	4.95552e-05	8870
bin	5.04096e-05	8714
bin	5.1264e-05	8608
bin	5.21184e-05	8233
bin	5.29728e-05	8123
bin	5.38272e-05	7757
bin	5.46816e-05	7639
bin	5.5536e-05	7566
bin	5.63904e-05	7235
bin	5.72448e-05	7146
bin	5.80992e-05	6865
bin	5.89536e-05	6781
bin	5.9808e-05	6707
bin	6.06624e-05	6511
bin	6.15168e-05	6382
bin	6.23712e-05	6283
bin	6.32256e-05	6116
bin	6.408e-05	6122
bin	6.49344e-05	6067
bin	6.57888e-05	6095
bin	6.66432e-05	6055
bin	6.74976e-05	5784
bin	6.8352e-05	5861
bin	6.92064e-05	5809
bin	7.00608e-05	5878
bin	7.09152e-05	5911
bin	7.17696e-05	5935
bin	7.2624e-05	5794
bin	7.34784e-05	5664
bin	7.43328e-05	5771
bin	7.51872e-05	5799
bin	7.60416e-05	5605
bin	7.6896e-05	5724
bin	7.77504e-05	5732
bin	7.86048e-05	5648
bin	7.94592e-05	5559
bin	8.03136e-05	5407
bin	8.1168e-05	5391
bin	8.20224e-05	5407
bin	8.28768e-05	5377
bin	8.37312e-05	5258
bin	8.45856e-05	5248
bin	8.544e-05	5238
bin	8.62944e-05	5255
bin	8.71488e-05	5150
bin	8.80032e-05	5198
bin	8.88576e-05	5097
bin	8.9712e-05	5016
bin	9.05664e-05	5093
bin	9.14208e-05	5126
bin	9.22752e-05	5197
bin	9.31296e-05	5024
bin	9.3984e-05	5048
bin	9.48384e-05	4965
bin	9.56928e-05	5037
bin	9.65472e-05	5188
bin	9.74016e-05	4979
bin	9.8256e-05	5197
bin	9.91104e-05	5016
bin	9.99648e-05	5041
bin	0.0001008192	4923
bin	0.0001016736	4893
bin	0.000102528	4907
bin	0.0001033824	4944
bin	0.0001042368	4937
bin	0.0001050912	4819
bin	0.0001059456	4882
bin	0.0001068	4817
bin	0.0001076544	4841
bin	0.0001085088	4749
bin	0.0001093632	4814
bin	0.0001102176	4700
bin	0.000111072	4709
bin	0.0001119264	4750
bin	0.0001127808	4798
bin	0.0001136352	4784
bin	0.0001144896	4738
bin	0.000115344	4728
bin	0.0001161984	4742
bin	0.0001170528	4730
bin	0.0001179072	4836
bin	0.0001187616	4855
bin	0.000119616	4831
bin	0.0001204704	4784
bin	0.0001213248	4770
bin	0.0001221792	4633
bin	0.0001230336	4728
bin	0.000123888	4794
bin	0.0001247424	4656
bin	0.0001255968	4718
bin	0.0001264512	4581
bin	0.0001273056	4737
bin	0.00012816	4704
bin	0.0001290144	4735
bin	0.0001298688	4620
bin	0.0001307232	4731
bin	0.0001315776	4665
bin	0.000132432	4708
bin	0.0001332864	4727
bin	0.0001341408	4781
bin	0.0001349952	4730
bin	0.0001358496	4705
bin	0.000136704	4690
bin	0.0001375584	4604
bin	0.0001384128	4614
bin	0.0001392672	4619
bin	0.0001401216	4640
bin	0.000140976	4609
bin	0.0001418304	4632
bin	0.0001426848	4715
bin	0.0001435392	4664
bin	0.0001443936	4739
bin	0.000145248	4568
bin	0.0001461024	4564
bin	0.0001469568	4493
bin	0.0001478112	4532
bin	0.0001486656	4497
bin	0.00014952	4595
bin	0.0001503744	4665
bin	0.0001512288	4651
bin	0.0001520832	4696
bin	0.0001529376	4626
bin	0.000153792	4709
bin	0.0001546464	4614
bin	0.0001555008	4759
bin	0.0001563552	4605
bin	0.0001572096	4541
bin	0.000158064	4569
bin	0.0001589184	4534
bin	0.0001597728	4603
bin	0.0001606272	4569
bin	0.0001614816	4685
bin	0.000162336	4660
bin	0.0001631904	4562
bin	0.0001640448	4634
bin	0.0001648992	4621
bin	0.0001657536	4705
bin	0.000166608	4564
bin	0.0001674624	4754
bin	0.0001683168	4659
bin	0.0001691712	4709
bin	0.0001700256	4717
bin	0.00017088	4702
bin	0.0001717344	4721
bin	0.0001725888	4589
bin	0.0001734432	4838
bin	0.0001742976	4709
bin	0.000175152	4733
bin	0.0001760064	4596
bin	0.0001768608	4665
bin	0.0001777152	4647
bin	0.0001785696	4648
bin	0.000179424	4617
bin	0.0001802784	4548
bin	0.0001811328	4492
bin	0.0001819872	4660
bin	0.0001828416	4644
bin	0.000183696	4595
bin	0.0001845504	4663
bin	0.0001854048	4724
bin	0.0001862592	4681
bin	0.0001871136	4726
bin	0.000187968	4516
bin	0.0001888224	4433
bin	0.0001896768	4603
bin	0.0001905312	4469
bin	0.0001913856	4586
bin	0.00019224	4564
bin	0.0001930944	4460
bin	0.0001939488	4640
bin	0.0001948032	4654
bin	0.0001956576	4512
bin	0.000196512	4648
bin	0.0001973664	4729
bin	0.0001982208	4702
bin	0.0001990752	4608
bin	0.0001999296	4683
bin	0.000200784	4760
bin	0.0002016384	4655
bin	0.0002024928	4674
bin	0.0002033472	4727
bin	0.0002042016	4628
bin	0.000205056	4701
bin	0.0002059104	4777
bin	0.0002067648	4668
bin	0.0002076192	4721
bin	0.0002084736	4844
bin	0.000209328	4670
bin	0.0002101824	4757
bin	0.0002110368	4729
bin	0.0002118912	4658
bin	0.0002127456	4796
bin	0.0002136	4686
bin	0.0002144544	4658
bin	0.0002153088	4618
bin	0.0002161632	4580
bin	0.0002170176	4579
bin	0.000217872	4737
bin	0.0002187264	4796
bin	0.0002195808	4691
bin	0.0002204352	4640
bin	0.0002212896	4819
bin	0.000222144	4700
bin	0.0002229984	4726
bin	0.0002238528	4717
bin	0.0002247072	4746
bin	0.0002255616	4775
bin	0.000226416	4710
bin	0.0002272704	4871
bin	0.0002281248	4786
bin	0.0002289792	4822
bin	0.0002298336	4759
bin	0.000230688	4793
bin	0.0002315424	4826
bin	0.0002323968	4673
bin	0.0002332512	4746
bin	0.0002341056	4689
bin	0.00023496	4684
bin	0.0002358144	4665
bin	0.0002366688	4688
bin	0.0002375232	4729
bin	0.0002383776	4681
bin	0.000239232	4786
bin	0.0002400864	4726
bin	0.0002409408	4687
bin	0.0002417952	4652
bin	0.0002426496	4654
bin	0.000243504	4647
bin	0.0002443584	4625
bin	0.0002452128	4602
bin	0.0002460672	4653
bin	0.0002469216	4564
bin	0.000247776	4643
bin	0.0002486304	4596
bin	0.0002494848	4558
bin	0.0002503392	4485
bin	0.0002511936	4637
bin	0.000252048	4544
bin	0.0002529024	4601
bin	0.0002537568	4529
bin	0.0002546112	4783
bin	0.0002554656	4673
bin	0.00025632	4550
bin	0.0002571744	4609
bin	0.0002580288	4633
bin	0.0002588832	4609
bin	0.0002597376	4637
bin	0.000260592	4572
bin	0.0002614464	4617
bin	0.0002623008	4678
bin	0.0002631552	4571
bin	0.0002640096	4569
bin	0.000264864	4576
bin	0.0002657184	4666
bin	0.0002665728	4638
bin	0.0002674272	4531
bin	0.0002682816	4662
bin	0.000269136	4596
bin	0.0002699904	4680
bin	0.0002708448	4503
bin	0.0002716992	4531
bin	0.0002725536	4594
bin	0.000273408	4655
bin	0.0002742624	4620
bin	0.0002751168	4584
bin	0.0002759712	4586
bin	0.0002768256	4521
bin	0.00027768	4647
bin	0.0002785344	4629
bin	0.0002793888	4738
bin	0.0002802432	4573
bin	0.0002810976	4665
bin	0.000281952	4687
bin	0.0002828064	4666
bin	0.0002836608	4633
bin	0.0002845152	4774
bin	0.0002853696	4757
bin	0.000286224	4808
bin	0.0002870784	4640
bin	0.0002879328	4632
bin	0.0002887872	4657
bin	0.0002896416	4701
bin	0.000290496	4704
bin	0.0002913504	4588
bin	0.0002922048	4609
bin	0.0002930592	4655
bin	0.0002939136	4782
bin	0.000294768	4646
bin	0.0002956224	4583
bin	0.0002964768	4645
bin	0.0002973312	4721
bin	0.0002981856	4617
bin	0.00029904	4579
bin	0.0002998944	4718
bin	0.0003007488	4635
bin	0.0003016032	4641
bin	0.0003024576	4558
bin	0.000303312	4577
bin	0.0003041664	4548
bin	0.0003050208	4634
bin	0.0003058752	4560
bin	0.0003067296	4595
bin	0.000307584	4700
bin	0.0003084384	4624
bin	0.0003092928	4572
bin	0.0003101472	4649
bin	0.0003110016	4711
bin	0.000311856	4628
bin	0.0003127104	4528
bin	0.0003135648	4681
bin	0.0003144192	4541
bin	0.0003152736	4546
bin	0.000316128	4586
bin	0.0003169824	4555
bin	0.0003178368	4586
bin	0.0003186912	4548
bin	0.0003195456	4523
bin	0.0003204	4654
bin	0.0003212544	4540
bin	0.0003221088	4519
bin	0.0003229632	4601
bin	0.0003238176	4633
bin	0.000324672	4572
bin	0.0003255264	4571
bin	0.0003263808	4586
bin	0.0003272352	4542
bin	0.0003280896	4554
bin	0.000328944	4515
bin	0.0003297984	4487
bin	0.0003306528	4531
bin	0.0003315072	4490
bin	0.0003323616	4524
bin	0.000333216	4442
bin	0.0003340704	4523
bin	0.0003349248	4593
bin	0.0003357792	4512
bin	0.0003366336	4473
bin	0.000337488	4484
bin	0.0003383424	4422
bin	0.0003391968	4494
bin	0.0003400512	4413
bin	0.0003409056	4464
bin	0.00034176	4396
bin	0.0003426144	4343
bin	0.0003434688	4399
bin	0.0003443232	4396
bin	0.0003451776	4392
bin	0.000346032	4291
bin	0.0003468864	4388
bin	0.0003477408	4447
bin	0.0003485952	4475
bin	0.0003494496	4452
bin	0.000350304	4422
bin	0.0003511584	4438
bin	0.0003520128	4472
bin	0.0003528672	4487
bin	0.0003537216	4540
bin	0.000354576	4450
bin	0.0003554304	4402
bin	0.0003562848	4502
bin	0.0003571392	4491
bin	0.0003579936	4563
bin	0.000358848	4542
bin	0.0003597024	4646
bin	0.0003605568	4471
bin	0.0003614112	4536
bin	0.0003622656	4455
bin	0.00036312	4495
bin	0.0003639744	4580
bin	0.0003648288	4520
bin	0.0003656832	4502
bin	0.0003665376	4499
bin	0.000367392	4504
bin	0.0003682464	4515
bin	0.0003691008	4530
bin	0.0003699552	4477
bin	0.0003708096	4552
bin	0.000371664	4464
bin	0.0003725184	4343
bin	0.0003733728	4451
bin	0.0003742272	4438
bin	0.0003750816	4529
bin	0.000375936	4564
bin	0.0003767904	4556
bin	0.0003776448	4589
bin	0.0003784992	4505
bin	0.0003793536	4459
bin	0.000380208	4496
bin	0.0003810624	4550
bin	0.0003819168	4606
bin	0.0003827712	4611
bin	0.0003836256	4493
bin	0.00038448	4417
bin	0.0003853344	4538
bin	0.0003861888	4415
bin	0.0003870432	4546
bin	0.0003878976	4379
bin	0.000388752	4476
bin	0.0003896064	4380
bin	0.0003904608	4467
bin	0.0003913152	4400
bin	0.0003921696	4426
bin	0.000393024	4348
bin	0.0003938784	4394
bin	0.0003947328	4275
bin	0.0003955872	4392
bin	0.0003964416	4462
bin	0.000397296	4308
bin	0.0003981504	4380
bin	0.0003990048	4453
bin	0.0003998592	4402
bin	0.0004007136	4451
bin	0.000401568	4376
bin	0.0004024224	4490
bin	0.0004032768	4501
bin	0.0004041312	4457
bin	0.0004049856	4453
bin	0.00040584	4522
bin	0.0004066944	4472
bin	0.0004075488	4426
bin	0.0004084032	4447
bin	0.0004092576	4444
bin	0.000410112	4540
bin	0.0004109664	4341
bin	0.0004118208	4432
bin	0.0004126752	4392
bin	0.0004135296	4435
bin	0.000414384	4485
bin	0.0004152384	4447
bin	0.0004160928	4380
bin	0.0004169472	4386
bin	0.0004178016	4427
bin	0.000418656	4528
bin	0.0004195104	4494
bin	0.0004203648	4473
bin	0.0004212192	4357
bin	0.0004220736	4359
bin	0.000422928	4376
bin	0.0004237824	4449
bin	0.0004246368	4369
bin	0.0004254912	4412
bin	0.0004263456	4445
bin	0.0004272	3353389
