version 2
run Uniform-77-20120709-19:00:18-24859
attr alg 1
attr buf 8
attr configname Uniform
attr datetime 20120709-19:00:18
attr delta 1
attr experiment Uniform
attr ext false
attr inifile altro.ini
attr iterationvars "$buf=8, $ext=false, $ofedge=2, $delta=1, $alg=1"
attr iterationvars2 "$buf=8, $ext=false, $ofedge=2, $delta=1, $alg=1, $repetition=0"
attr measurement "$buf=8, $ext=false, $ofedge=2, $delta=1, $alg=1"
attr network Torus3d_bub
attr ofedge 2
attr processid 24859
attr repetition 0
attr replication #0
attr resultdir altro-results
attr runnumber 77
attr seedset 77

scalar . 	alg 	1
scalar . 	buf 	8
scalar . 	delta 	1
scalar . 	ofedge 	2
scalar Torus3d_bub.timer 	#endTime 	0.00202609099686
scalar Torus3d_bub.timer 	#totalHops 	91359060
scalar Torus3d_bub.timer 	#totalPacks 	6291456
scalar Torus3d_bub.timer 	#totalDerouted 	2265768
scalar Torus3d_bub.timer 	#totalOutFlanked 	2265768
scalar Torus3d_bub.timer 	#totalCQRed 	0
scalar Torus3d_bub.timer 	#LB 	0.000786432
scalar Torus3d_bub.timer 	#ratio 	0.38815235900994
statistic Torus3d_bub.timer 	"Hop Times"
field count 6289776
field mean 4.5612480517358e-05
field stddev 4.5048276365257e-05
field sum 286.89228525855
field sqrsum 0.025850006078708
field min 3.79249999e-07
field max 0.001304500999998
bin	-INF	0
bin	0	0
bin	7.12e-08	0
bin	1.424e-07	0
bin	2.136e-07	0
bin	2.848e-07	0
bin	3.56e-07	215
bin	4.272e-07	872
bin	4.984e-07	1728
bin	5.696e-07	2607
bin	6.408e-07	3647
bin	7.12e-07	4767
bin	7.832e-07	5783
bin	8.544e-07	6821
bin	9.256e-07	7650
bin	9.968e-07	8632
bin	1.068e-06	9821
bin	1.1392e-06	11090
bin	1.2104e-06	12483
bin	1.2816e-06	14015
bin	1.3528e-06	15772
bin	1.424e-06	17307
bin	1.4952e-06	18825
bin	1.5664e-06	20376
bin	1.6376e-06	21406
bin	1.7088e-06	22321
bin	1.78e-06	22817
bin	1.8512e-06	22684
bin	1.9224e-06	22691
bin	1.9936e-06	22088
bin	2.0648e-06	21428
bin	2.136e-06	21022
bin	2.2072e-06	19784
bin	2.2784e-06	19135
bin	2.3496e-06	17969
bin	2.4208e-06	17302
bin	2.492e-06	16561
bin	2.5632e-06	15616
bin	2.6344e-06	15021
bin	2.7056e-06	14246
bin	2.7768e-06	13589
bin	2.848e-06	12989
bin	2.9192e-06	12388
bin	2.9904e-06	11792
bin	3.0616e-06	11466
bin	3.1328e-06	11101
bin	3.204e-06	10638
bin	3.2752e-06	10317
bin	3.3464e-06	10076
bin	3.4176e-06	9539
bin	3.4888e-06	9660
bin	3.56e-06	9138
bin	3.6312e-06	8991
bin	3.7024e-06	8784
bin	3.7736e-06	8437
bin	3.8448e-06	8314
bin	3.916e-06	8109
bin	3.9872e-06	7972
bin	4.0584e-06	8007
bin	4.1296e-06	7888
bin	4.2008e-06	7860
bin	4.272e-06	7548
bin	4.3432e-06	7598
bin	4.4144e-06	7279
bin	4.4856e-06	7281
bin	4.5568e-06	7217
bin	4.628e-06	7173
bin	4.6992e-06	7166
bin	4.7704e-06	7054
bin	4.8416e-06	7079
bin	4.9128e-06	6682
bin	4.984e-06	6913
bin	5.0552e-06	6838
bin	5.1264e-06	6612
bin	5.1976e-06	6592
bin	5.2688e-06	6715
bin	5.34e-06	6661
bin	5.4112e-06	6562
bin	5.4824e-06	6513
bin	5.5536e-06	6582
bin	5.6248e-06	6470
bin	5.696e-06	6386
bin	5.7672e-06	6539
bin	5.8384e-06	6311
bin	5.9096e-06	6408
bin	5.9808e-06	6453
bin	6.052e-06	6267
bin	6.1232e-06	6278
bin	6.1944e-06	6262
bin	6.2656e-06	6173
bin	6.3368e-06	6270
bin	6.408e-06	6275
bin	6.4792e-06	6085
bin	6.5504e-06	6201
bin	6.6216e-06	6231
bin	6.6928e-06	6280
bin	6.764e-06	6099
bin	6.8352e-06	6193
bin	6.9064e-06	6140
bin	6.9776e-06	6100
bin	7.0488e-06	6006
bin	7.12e-06	6101
bin	7.1912e-06	6154
bin	7.2624e-06	5867
bin	7.3336e-06	6091
bin	7.4048e-06	5994
bin	7.476e-06	6022
bin	7.5472e-06	6057
bin	7.6184e-06	5928
bin	7.6896e-06	5989
bin	7.7608e-06	5968
bin	7.832e-06	5946
bin	7.9032e-06	5887
bin	7.9744e-06	5900
bin	8.0456e-06	5904
bin	8.1168e-06	5997
bin	8.188e-06	5933
bin	8.2592e-06	5965
bin	8.3304e-06	5906
bin	8.4016e-06	5956
bin	8.4728e-06	5906
bin	8.544e-06	5847
bin	8.6152e-06	6015
bin	8.6864e-06	5897
bin	8.7576e-06	5890
bin	8.8288e-06	5927
bin	8.9e-06	6145
bin	8.9712e-06	5943
bin	9.0424e-06	6027
bin	9.1136e-06	5862
bin	9.1848e-06	5802
bin	9.256e-06	5820
bin	9.3272e-06	5824
bin	9.3984e-06	5817
bin	9.4696e-06	5872
bin	9.5408e-06	5914
bin	9.612e-06	5882
bin	9.6832e-06	5775
bin	9.7544e-06	5824
bin	9.8256e-06	5807
bin	9.8968e-06	5709
bin	9.968e-06	5730
bin	1.00392e-05	5773
bin	1.01104e-05	5714
bin	1.01816e-05	5628
bin	1.02528e-05	5556
bin	1.0324e-05	5777
bin	1.03952e-05	5774
bin	1.04664e-05	5812
bin	1.05376e-05	5784
bin	1.06088e-05	5829
bin	1.068e-05	5662
bin	1.07512e-05	5621
bin	1.08224e-05	5619
bin	1.08936e-05	5528
bin	1.09648e-05	5646
bin	1.1036e-05	5727
bin	1.11072e-05	5593
bin	1.11784e-05	5633
bin	1.12496e-05	5672
bin	1.13208e-05	5573
bin	1.1392e-05	5596
bin	1.14632e-05	5524
bin	1.15344e-05	5563
bin	1.16056e-05	5630
bin	1.16768e-05	5535
bin	1.1748e-05	5509
bin	1.18192e-05	5720
bin	1.18904e-05	5518
bin	1.19616e-05	5540
bin	1.20328e-05	5507
bin	1.2104e-05	5625
bin	1.21752e-05	5547
bin	1.22464e-05	5505
bin	1.23176e-05	5525
bin	1.23888e-05	5476
bin	1.246e-05	5440
bin	1.25312e-05	5527
bin	1.26024e-05	5358
bin	1.26736e-05	5645
bin	1.27448e-05	5496
bin	1.2816e-05	5601
bin	1.28872e-05	5629
bin	1.29584e-05	5552
bin	1.30296e-05	5431
bin	1.31008e-05	5579
bin	1.3172e-05	5609
bin	1.32432e-05	5562
bin	1.33144e-05	5421
bin	1.33856e-05	5512
bin	1.34568e-05	5351
bin	1.3528e-05	5572
bin	1.35992e-05	5446
bin	1.36704e-05	5369
bin	1.37416e-05	5457
bin	1.38128e-05	5481
bin	1.3884e-05	5432
bin	1.39552e-05	5487
bin	1.40264e-05	5458
bin	1.40976e-05	5417
bin	1.41688e-05	5442
bin	1.424e-05	5458
bin	1.43112e-05	5461
bin	1.43824e-05	5509
bin	1.44536e-05	5560
bin	1.45248e-05	5509
bin	1.4596e-05	5434
bin	1.46672e-05	5625
bin	1.47384e-05	5505
bin	1.48096e-05	5537
bin	1.48808e-05	5493
bin	1.4952e-05	5637
bin	1.50232e-05	5461
bin	1.50944e-05	5537
bin	1.51656e-05	5404
bin	1.52368e-05	5406
bin	1.5308e-05	5343
bin	1.53792e-05	5343
bin	1.54504e-05	5501
bin	1.55216e-05	5357
bin	1.55928e-05	5425
bin	1.5664e-05	5360
bin	1.57352e-05	5431
bin	1.58064e-05	5285
bin	1.58776e-05	5463
bin	1.59488e-05	5372
bin	1.602e-05	5337
bin	1.60912e-05	5359
bin	1.61624e-05	5409
bin	1.62336e-05	5441
bin	1.63048e-05	5262
bin	1.6376e-05	5325
bin	1.64472e-05	5296
bin	1.65184e-05	5274
bin	1.65896e-05	5334
bin	1.66608e-05	5227
bin	1.6732e-05	5480
bin	1.68032e-05	5369
bin	1.68744e-05	5380
bin	1.69456e-05	5477
bin	1.70168e-05	5471
bin	1.7088e-05	5361
bin	1.71592e-05	5291
bin	1.72304e-05	5369
bin	1.73016e-05	5305
bin	1.73728e-05	5336
bin	1.7444e-05	5307
bin	1.75152e-05	5320
bin	1.75864e-05	5203
bin	1.76576e-05	5287
bin	1.77288e-05	5395
bin	1.78e-05	5151
bin	1.78712e-05	5399
bin	1.79424e-05	5284
bin	1.80136e-05	5450
bin	1.80848e-05	5229
bin	1.8156e-05	5249
bin	1.82272e-05	5295
bin	1.82984e-05	5104
bin	1.83696e-05	5252
bin	1.84408e-05	5231
bin	1.8512e-05	5223
bin	1.85832e-05	5379
bin	1.86544e-05	5293
bin	1.87256e-05	5351
bin	1.87968e-05	5263
bin	1.8868e-05	5267
bin	1.89392e-05	5210
bin	1.90104e-05	5246
bin	1.90816e-05	5398
bin	1.91528e-05	5332
bin	1.9224e-05	5329
bin	1.92952e-05	5259
bin	1.93664e-05	5127
bin	1.94376e-05	5233
bin	1.95088e-05	5249
bin	1.958e-05	5104
bin	1.96512e-05	5048
bin	1.97224e-05	5164
bin	1.97936e-05	5109
bin	1.98648e-05	4964
bin	1.9936e-05	5121
bin	2.00072e-05	5001
bin	2.00784e-05	5176
bin	2.01496e-05	5086
bin	2.02208e-05	5178
bin	2.0292e-05	5242
bin	2.03632e-05	5094
bin	2.04344e-05	5095
bin	2.05056e-05	5057
bin	2.05768e-05	5093
bin	2.0648e-05	5088
bin	2.07192e-05	5059
bin	2.07904e-05	5154
bin	2.08616e-05	4993
bin	2.09328e-05	5065
bin	2.1004e-05	5048
bin	2.10752e-05	4893
bin	2.11464e-05	4993
bin	2.12176e-05	4973
bin	2.12888e-05	5078
bin	2.136e-05	5107
bin	2.14312e-05	5116
bin	2.15024e-05	5084
bin	2.15736e-05	4991
bin	2.16448e-05	5004
bin	2.1716e-05	5026
bin	2.17872e-05	4949
bin	2.18584e-05	5046
bin	2.19296e-05	4923
bin	2.20008e-05	5104
bin	2.2072e-05	5049
bin	2.21432e-05	5035
bin	2.22144e-05	5018
bin	2.22856e-05	4887
bin	2.23568e-05	4898
bin	2.2428e-05	4973
bin	2.24992e-05	4885
bin	2.25704e-05	4977
bin	2.26416e-05	4799
bin	2.27128e-05	4865
bin	2.2784e-05	4909
bin	2.28552e-05	4999
bin	2.29264e-05	5085
bin	2.29976e-05	4994
bin	2.30688e-05	4979
bin	2.314e-05	4966
bin	2.32112e-05	5019
bin	2.32824e-05	5044
bin	2.33536e-05	4997
bin	2.34248e-05	5052
bin	2.3496e-05	4960
bin	2.35672e-05	5117
bin	2.36384e-05	5085
bin	2.37096e-05	5175
bin	2.37808e-05	4960
bin	2.3852e-05	5041
bin	2.39232e-05	5116
bin	2.39944e-05	5084
bin	2.40656e-05	5045
bin	2.41368e-05	5085
bin	2.4208e-05	5081
bin	2.42792e-05	4896
bin	2.43504e-05	4985
bin	2.44216e-05	4868
bin	2.44928e-05	4842
bin	2.4564e-05	4991
bin	2.46352e-05	4901
bin	2.47064e-05	4977
bin	2.47776e-05	4996
bin	2.48488e-05	5002
bin	2.492e-05	5065
bin	2.49912e-05	5019
bin	2.50624e-05	5113
bin	2.51336e-05	4981
bin	2.52048e-05	5103
bin	2.5276e-05	5089
bin	2.53472e-05	4959
bin	2.54184e-05	5005
bin	2.54896e-05	5042
bin	2.55608e-05	4889
bin	2.5632e-05	4904
bin	2.57032e-05	4868
bin	2.57744e-05	5014
bin	2.58456e-05	4974
bin	2.59168e-05	4873
bin	2.5988e-05	5005
bin	2.60592e-05	5009
bin	2.61304e-05	4975
bin	2.62016e-05	4994
bin	2.62728e-05	5112
bin	2.6344e-05	4984
bin	2.64152e-05	4882
bin	2.64864e-05	4970
bin	2.65576e-05	4901
bin	2.66288e-05	4869
bin	2.67e-05	4922
bin	2.67712e-05	5007
bin	2.68424e-05	5060
bin	2.69136e-05	4923
bin	2.69848e-05	4893
bin	2.7056e-05	4802
bin	2.71272e-05	4834
bin	2.71984e-05	5045
bin	2.72696e-05	5003
bin	2.73408e-05	4967
bin	2.7412e-05	4935
bin	2.74832e-05	4890
bin	2.75544e-05	4953
bin	2.76256e-05	4797
bin	2.76968e-05	4934
bin	2.7768e-05	4916
bin	2.78392e-05	4838
bin	2.79104e-05	4897
bin	2.79816e-05	4903
bin	2.80528e-05	4822
bin	2.8124e-05	4862
bin	2.81952e-05	4717
bin	2.82664e-05	4821
bin	2.83376e-05	4826
bin	2.84088e-05	4749
bin	2.848e-05	4880
bin	2.85512e-05	5043
bin	2.86224e-05	4955
bin	2.86936e-05	4817
bin	2.87648e-05	4954
bin	2.8836e-05	4895
bin	2.89072e-05	4965
bin	2.89784e-05	4913
bin	2.90496e-05	4879
bin	2.91208e-05	4799
bin	2.9192e-05	4896
bin	2.92632e-05	4921
bin	2.93344e-05	4844
bin	2.94056e-05	4813
bin	2.94768e-05	4929
bin	2.9548e-05	4822
bin	2.96192e-05	4862
bin	2.96904e-05	4938
bin	2.97616e-05	4864
bin	2.98328e-05	4950
bin	2.9904e-05	5020
bin	2.99752e-05	4983
bin	3.00464e-05	4925
bin	3.01176e-05	4754
bin	3.01888e-05	4910
bin	3.026e-05	4821
bin	3.03312e-05	4883
bin	3.04024e-05	4780
bin	3.04736e-05	4755
bin	3.05448e-05	4832
bin	3.0616e-05	4759
bin	3.06872e-05	4738
bin	3.07584e-05	4748
bin	3.08296e-05	4722
bin	3.09008e-05	4776
bin	3.0972e-05	4789
bin	3.10432e-05	4751
bin	3.11144e-05	4763
bin	3.11856e-05	4751
bin	3.12568e-05	4729
bin	3.1328e-05	4852
bin	3.13992e-05	4967
bin	3.14704e-05	4864
bin	3.15416e-05	4777
bin	3.16128e-05	4696
bin	3.1684e-05	4640
bin	3.17552e-05	4718
bin	3.18264e-05	4778
bin	3.18976e-05	4699
bin	3.19688e-05	4893
bin	3.204e-05	4767
bin	3.21112e-05	4731
bin	3.21824e-05	4919
bin	3.22536e-05	4844
bin	3.23248e-05	4900
bin	3.2396e-05	4794
bin	3.24672e-05	4839
bin	3.25384e-05	4920
bin	3.26096e-05	4746
bin	3.26808e-05	4989
bin	3.2752e-05	4797
bin	3.28232e-05	4843
bin	3.28944e-05	5015
bin	3.29656e-05	4848
bin	3.30368e-05	4813
bin	3.3108e-05	4868
bin	3.31792e-05	4829
bin	3.32504e-05	4830
bin	3.33216e-05	4853
bin	3.33928e-05	4865
bin	3.3464e-05	4935
bin	3.35352e-05	4844
bin	3.36064e-05	4861
bin	3.36776e-05	4741
bin	3.37488e-05	4690
bin	3.382e-05	4726
bin	3.38912e-05	4722
bin	3.39624e-05	4864
bin	3.40336e-05	4777
bin	3.41048e-05	4862
bin	3.4176e-05	4900
bin	3.42472e-05	4767
bin	3.43184e-05	4819
bin	3.43896e-05	4749
bin	3.44608e-05	4843
bin	3.4532e-05	4731
bin	3.46032e-05	4840
bin	3.46744e-05	4758
bin	3.47456e-05	4803
bin	3.48168e-05	4760
bin	3.4888e-05	4807
bin	3.49592e-05	4695
bin	3.50304e-05	4729
bin	3.51016e-05	4720
bin	3.51728e-05	4760
bin	3.5244e-05	4673
bin	3.53152e-05	4818
bin	3.53864e-05	4905
bin	3.54576e-05	4776
bin	3.55288e-05	4663
bin	3.56e-05	3265240
statistic Torus3d_bub.timer 	"Life Times"
field count 6291456
field mean 0.00057330738172042
field stddev 0.00039108479674193
field sum 3606.9381665692
field sqrsum 3.0301454463977
field min 2.49333218e-07
field max 0.001877257330403
bin	-INF	0
bin	0	22
bin	8.544e-07	273
bin	1.7088e-06	745
bin	2.5632e-06	1471
bin	3.4176e-06	2204
bin	4.272e-06	2981
bin	5.1264e-06	3713
bin	5.9808e-06	4465
bin	6.8352e-06	5288
bin	7.6896e-06	6202
bin	8.544e-06	7138
bin	9.3984e-06	8192
bin	1.02528e-05	9067
bin	1.11072e-05	9388
bin	1.19616e-05	10050
bin	1.2816e-05	10783
bin	1.36704e-05	11582
bin	1.45248e-05	12287
bin	1.53792e-05	12806
bin	1.62336e-05	13834
bin	1.7088e-05	14422
bin	1.79424e-05	15149
bin	1.87968e-05	15803
bin	1.96512e-05	16955
bin	2.05056e-05	17556
bin	2.136e-05	18466
bin	2.22144e-05	18763
bin	2.30688e-05	19439
bin	2.39232e-05	19865
bin	2.47776e-05	20208
bin	2.5632e-05	20129
bin	2.64864e-05	19456
bin	2.73408e-05	18628
bin	2.81952e-05	17615
bin	2.90496e-05	16828
bin	2.9904e-05	15890
bin	3.07584e-05	14803
bin	3.16128e-05	13946
bin	3.24672e-05	13162
bin	3.33216e-05	11952
bin	3.4176e-05	11476
bin	3.50304e-05	10539
bin	3.58848e-05	9980
bin	3.67392e-05	9601
bin	3.75936e-05	9046
bin	3.8448e-05	8933
bin	3.93024e-05	8616
bin	4.01568e-05	8457
bin	4.10112e-05	8197
bin	4.18656e-05	7955
bin	4.272e-05	7951
bin	4.35744e-05	7648
bin	4.44288e-05	7602
bin	4.52832e-05	7562
bin	4.61376e-05	7523
bin	4.6992e-05	7489
bin	4.78464e-05	7438
bin	4.87008e-05	7232
bin	4.95552e-05	7515
bin	5.04096e-05	7224
bin	5.1264e-05	7224
bin	5.21184e-05	6951
bin	5.29728e-05	6886
bin	5.38272e-05	6569
bin	5.46816e-05	6437
bin	5.5536e-05	6399
bin	5.63904e-05	6098
bin	5.72448e-05	6031
bin	5.80992e-05	6032
bin	5.89536e-05	5864
bin	5.9808e-05	5829
bin	6.06624e-05	5607
bin	6.15168e-05	5646
bin	6.23712e-05	5595
bin	6.32256e-05	5626
bin	6.408e-05	5440
bin	6.49344e-05	5470
bin	6.57888e-05	5318
bin	6.66432e-05	5296
bin	6.74976e-05	5313
bin	6.8352e-05	5306
bin	6.92064e-05	5381
bin	7.00608e-05	5304
bin	7.09152e-05	5295
bin	7.17696e-05	5232
bin	7.2624e-05	5163
bin	7.34784e-05	5157
bin	7.43328e-05	5140
bin	7.51872e-05	5071
bin	7.60416e-05	5104
bin	7.6896e-05	5078
bin	7.77504e-05	5014
bin	7.86048e-05	5088
bin	7.94592e-05	4960
bin	8.03136e-05	5152
bin	8.1168e-05	5141
bin	8.20224e-05	4904
bin	8.28768e-05	4891
bin	8.37312e-05	5002
bin	8.45856e-05	4903
bin	8.544e-05	4956
bin	8.62944e-05	4896
bin	8.71488e-05	4938
bin	8.80032e-05	4968
bin	8.88576e-05	4832
bin	8.9712e-05	5008
bin	9.05664e-05	4924
bin	9.14208e-05	4785
bin	9.22752e-05	4813
bin	9.31296e-05	4826
bin	9.3984e-05	4698
bin	9.48384e-05	4790
bin	9.56928e-05	4824
bin	9.65472e-05	4780
bin	9.74016e-05	4770
bin	9.8256e-05	4656
bin	9.91104e-05	4902
bin	9.99648e-05	4837
bin	0.0001008192	4825
bin	0.0001016736	4865
bin	0.000102528	4869
bin	0.0001033824	4783
bin	0.0001042368	4868
bin	0.0001050912	4781
bin	0.0001059456	4778
bin	0.0001068	4806
bin	0.0001076544	4713
bin	0.0001085088	4639
bin	0.0001093632	4692
bin	0.0001102176	4759
bin	0.000111072	4627
bin	0.0001119264	4774
bin	0.0001127808	4687
bin	0.0001136352	4731
bin	0.0001144896	4686
bin	0.000115344	4737
bin	0.0001161984	4765
bin	0.0001170528	4533
bin	0.0001179072	4777
bin	0.0001187616	4696
bin	0.000119616	4594
bin	0.0001204704	4704
bin	0.0001213248	4703
bin	0.0001221792	4719
bin	0.0001230336	4841
bin	0.000123888	4697
bin	0.0001247424	4754
bin	0.0001255968	4794
bin	0.0001264512	4768
bin	0.0001273056	4843
bin	0.00012816	4815
bin	0.0001290144	4748
bin	0.0001298688	4875
bin	0.0001307232	4665
bin	0.0001315776	4740
bin	0.000132432	4735
bin	0.0001332864	4758
bin	0.0001341408	4753
bin	0.0001349952	4818
bin	0.0001358496	4907
bin	0.000136704	4731
bin	0.0001375584	4685
bin	0.0001384128	4764
bin	0.0001392672	4695
bin	0.0001401216	4719
bin	0.000140976	4574
bin	0.0001418304	4750
bin	0.0001426848	4638
bin	0.0001435392	4710
bin	0.0001443936	4727
bin	0.000145248	4738
bin	0.0001461024	4755
bin	0.0001469568	4629
bin	0.0001478112	4527
bin	0.0001486656	4572
bin	0.00014952	4578
bin	0.0001503744	4701
bin	0.0001512288	4652
bin	0.0001520832	4629
bin	0.0001529376	4619
bin	0.000153792	4563
bin	0.0001546464	4658
bin	0.0001555008	4592
bin	0.0001563552	4512
bin	0.0001572096	4575
bin	0.000158064	4713
bin	0.0001589184	4674
bin	0.0001597728	4559
bin	0.0001606272	4669
bin	0.0001614816	4638
bin	0.000162336	4647
bin	0.0001631904	4765
bin	0.0001640448	4675
bin	0.0001648992	4679
bin	0.0001657536	4638
bin	0.000166608	4613
bin	0.0001674624	4661
bin	0.0001683168	4610
bin	0.0001691712	4535
bin	0.0001700256	4642
bin	0.00017088	4568
bin	0.0001717344	4635
bin	0.0001725888	4616
bin	0.0001734432	4698
bin	0.0001742976	4542
bin	0.000175152	4550
bin	0.0001760064	4665
bin	0.0001768608	4596
bin	0.0001777152	4477
bin	0.0001785696	4482
bin	0.000179424	4501
bin	0.0001802784	4492
bin	0.0001811328	4599
bin	0.0001819872	4504
bin	0.0001828416	4434
bin	0.000183696	4393
bin	0.0001845504	4531
bin	0.0001854048	4582
bin	0.0001862592	4516
bin	0.0001871136	4574
bin	0.000187968	4569
bin	0.0001888224	4685
bin	0.0001896768	4624
bin	0.0001905312	4611
bin	0.0001913856	4657
bin	0.00019224	4516
bin	0.0001930944	4605
bin	0.0001939488	4461
bin	0.0001948032	4514
bin	0.0001956576	4558
bin	0.000196512	4567
bin	0.0001973664	4599
bin	0.0001982208	4616
bin	0.0001990752	4528
bin	0.0001999296	4572
bin	0.000200784	4587
bin	0.0002016384	4446
bin	0.0002024928	4467
bin	0.0002033472	4454
bin	0.0002042016	4412
bin	0.000205056	4377
bin	0.0002059104	4528
bin	0.0002067648	4554
bin	0.0002076192	4502
bin	0.0002084736	4579
bin	0.000209328	4553
bin	0.0002101824	4622
bin	0.0002110368	4486
bin	0.0002118912	4417
bin	0.0002127456	4301
bin	0.0002136	4362
bin	0.0002144544	4500
bin	0.0002153088	4360
bin	0.0002161632	4200
bin	0.0002170176	4444
bin	0.000217872	4446
bin	0.0002187264	4354
bin	0.0002195808	4415
bin	0.0002204352	4394
bin	0.0002212896	4376
bin	0.000222144	4300
bin	0.0002229984	4344
bin	0.0002238528	4269
bin	0.0002247072	4370
bin	0.0002255616	4328
bin	0.000226416	4433
bin	0.0002272704	4482
bin	0.0002281248	4390
bin	0.0002289792	4463
bin	0.0002298336	4388
bin	0.000230688	4281
bin	0.0002315424	4460
bin	0.0002323968	4274
bin	0.0002332512	4332
bin	0.0002341056	4387
bin	0.00023496	4338
bin	0.0002358144	4302
bin	0.0002366688	4313
bin	0.0002375232	4318
bin	0.0002383776	4247
bin	0.000239232	4265
bin	0.0002400864	4253
bin	0.0002409408	4281
bin	0.0002417952	4330
bin	0.0002426496	4208
bin	0.000243504	4341
bin	0.0002443584	4270
bin	0.0002452128	4274
bin	0.0002460672	4205
bin	0.0002469216	4233
bin	0.000247776	4121
bin	0.0002486304	4221
bin	0.0002494848	4150
bin	0.0002503392	4197
bin	0.0002511936	4210
bin	0.000252048	4303
bin	0.0002529024	4183
bin	0.0002537568	4307
bin	0.0002546112	4187
bin	0.0002554656	4267
bin	0.00025632	4194
bin	0.0002571744	4255
bin	0.0002580288	4300
bin	0.0002588832	4286
bin	0.0002597376	4217
bin	0.000260592	4329
bin	0.0002614464	4227
bin	0.0002623008	4128
bin	0.0002631552	4209
bin	0.0002640096	4201
bin	0.000264864	4234
bin	0.0002657184	4230
bin	0.0002665728	4160
bin	0.0002674272	4210
bin	0.0002682816	4139
bin	0.000269136	4300
bin	0.0002699904	4237
bin	0.0002708448	4199
bin	0.0002716992	4219
bin	0.0002725536	4265
bin	0.000273408	4280
bin	0.0002742624	4219
bin	0.0002751168	4149
bin	0.0002759712	4172
bin	0.0002768256	4142
bin	0.00027768	4249
bin	0.0002785344	4238
bin	0.0002793888	4364
bin	0.0002802432	4165
bin	0.0002810976	4217
bin	0.000281952	4157
bin	0.0002828064	4188
bin	0.0002836608	4214
bin	0.0002845152	4312
bin	0.0002853696	4110
bin	0.000286224	4229
bin	0.0002870784	4207
bin	0.0002879328	4177
bin	0.0002887872	4133
bin	0.0002896416	4140
bin	0.000290496	3943
bin	0.0002913504	4100
bin	0.0002922048	4101
bin	0.0002930592	4148
bin	0.0002939136	4233
bin	0.000294768	4196
bin	0.0002956224	4120
bin	0.0002964768	4183
bin	0.0002973312	4168
bin	0.0002981856	4059
bin	0.00029904	4100
bin	0.0002998944	4027
bin	0.0003007488	4193
bin	0.0003016032	4113
bin	0.0003024576	4062
bin	0.000303312	4144
bin	0.0003041664	4071
bin	0.0003050208	4062
bin	0.0003058752	4145
bin	0.0003067296	3945
bin	0.000307584	4089
bin	0.0003084384	3993
bin	0.0003092928	4101
bin	0.0003101472	4161
bin	0.0003110016	4086
bin	0.000311856	4041
bin	0.0003127104	4165
bin	0.0003135648	4096
bin	0.0003144192	4041
bin	0.0003152736	4054
bin	0.000316128	4175
bin	0.0003169824	4045
bin	0.0003178368	4031
bin	0.0003186912	4102
bin	0.0003195456	4081
bin	0.0003204	4124
bin	0.0003212544	4054
bin	0.0003221088	4002
bin	0.0003229632	4106
bin	0.0003238176	4183
bin	0.000324672	4143
bin	0.0003255264	4143
bin	0.0003263808	4146
bin	0.0003272352	4316
bin	0.0003280896	4140
bin	0.000328944	4125
bin	0.0003297984	4167
bin	0.0003306528	4130
bin	0.0003315072	4142
bin	0.0003323616	4027
bin	0.000333216	4053
bin	0.0003340704	4067
bin	0.0003349248	4082
bin	0.0003357792	4064
bin	0.0003366336	4004
bin	0.000337488	4012
bin	0.0003383424	4082
bin	0.0003391968	3999
bin	0.0003400512	4083
bin	0.0003409056	4170
bin	0.00034176	4088
bin	0.0003426144	3990
bin	0.0003434688	4033
bin	0.0003443232	4038
bin	0.0003451776	4023
bin	0.000346032	4092
bin	0.0003468864	4050
bin	0.0003477408	3970
bin	0.0003485952	4041
bin	0.0003494496	4005
bin	0.000350304	4018
bin	0.0003511584	4069
bin	0.0003520128	4003
bin	0.0003528672	4057
bin	0.0003537216	4140
bin	0.000354576	4093
bin	0.0003554304	4006
bin	0.0003562848	4105
bin	0.0003571392	4066
bin	0.0003579936	4154
bin	0.000358848	4058
bin	0.0003597024	4163
bin	0.0003605568	4068
bin	0.0003614112	4091
bin	0.0003622656	4043
bin	0.00036312	4091
bin	0.0003639744	4030
bin	0.0003648288	4157
bin	0.0003656832	4068
bin	0.0003665376	3980
bin	0.000367392	4033
bin	0.0003682464	4105
bin	0.0003691008	4114
bin	0.0003699552	4028
bin	0.0003708096	4110
bin	0.000371664	3982
bin	0.0003725184	3963
bin	0.0003733728	3964
bin	0.0003742272	3925
bin	0.0003750816	3948
bin	0.000375936	4067
bin	0.0003767904	4034
bin	0.0003776448	4052
bin	0.0003784992	4094
bin	0.0003793536	3995
bin	0.000380208	3966
bin	0.0003810624	4026
bin	0.0003819168	3997
bin	0.0003827712	4013
bin	0.0003836256	4035
bin	0.00038448	4034
bin	0.0003853344	3970
bin	0.0003861888	4070
bin	0.0003870432	4079
bin	0.0003878976	4162
bin	0.000388752	4079
bin	0.0003896064	4098
bin	0.0003904608	3970
bin	0.0003913152	3959
bin	0.0003921696	3938
bin	0.000393024	3953
bin	0.0003938784	4000
bin	0.0003947328	3915
bin	0.0003955872	3933
bin	0.0003964416	3998
bin	0.000397296	3921
bin	0.0003981504	4027
bin	0.0003990048	4002
bin	0.0003998592	4025
bin	0.0004007136	3940
bin	0.000401568	3871
bin	0.0004024224	4011
bin	0.0004032768	4066
bin	0.0004041312	4107
bin	0.0004049856	4014
bin	0.00040584	3984
bin	0.0004066944	4007
bin	0.0004075488	4027
bin	0.0004084032	3989
bin	0.0004092576	4107
bin	0.000410112	4085
bin	0.0004109664	3929
bin	0.0004118208	3948
bin	0.0004126752	3913
bin	0.0004135296	3933
bin	0.000414384	3978
bin	0.0004152384	4038
bin	0.0004160928	3979
bin	0.0004169472	3935
bin	0.0004178016	3955
bin	0.000418656	4034
bin	0.0004195104	3945
bin	0.0004203648	3873
bin	0.0004212192	3907
bin	0.0004220736	3995
bin	0.000422928	3979
bin	0.0004237824	3906
bin	0.0004246368	3915
bin	0.0004254912	3992
bin	0.0004263456	3935
bin	0.0004272	3698385
