version 2
run Uniform-19-20120709-16:01:30-24722
attr alg 3
attr buf 8
attr configname Uniform
attr datetime 20120709-16:01:30
attr delta 1
attr experiment Uniform
attr ext true
attr inifile altro.ini
attr iterationvars "$buf=8, $ext=true, $ofedge=1, $delta=1, $alg=3"
attr iterationvars2 "$buf=8, $ext=true, $ofedge=1, $delta=1, $alg=3, $repetition=0"
attr measurement "$buf=8, $ext=true, $ofedge=1, $delta=1, $alg=3"
attr network Torus3d_bub
attr ofedge 1
attr processid 24722
attr repetition 0
attr replication #0
attr resultdir altro-results
attr runnumber 19
attr seedset 19

scalar . 	alg 	3
scalar . 	buf 	8
scalar . 	delta 	1
scalar . 	ofedge 	1
scalar Torus3d_bub.timer 	#endTime 	0.001896029663731
scalar Torus3d_bub.timer 	#totalHops 	83936126
scalar Torus3d_bub.timer 	#totalPacks 	6291456
scalar Torus3d_bub.timer 	#totalDerouted 	2341983
scalar Torus3d_bub.timer 	#totalOutFlanked 	1866455
scalar Torus3d_bub.timer 	#totalCQRed 	475528
scalar Torus3d_bub.timer 	#LB 	0.000786432
scalar Torus3d_bub.timer 	#ratio 	0.41477832074234
statistic Torus3d_bub.timer 	"Hop Times"
field count 6290112
field mean 4.0868467083861e-05
field stddev 3.9498425392394e-05
field sum 257.0672352258
field sqrsum 0.020319307092437
field min 4.10619047e-07
field max 0.001114064664238
bin	-INF	0
bin	0	0
bin	7.12e-08	0
bin	1.424e-07	0
bin	2.136e-07	0
bin	2.848e-07	0
bin	3.56e-07	24
bin	4.272e-07	595
bin	4.984e-07	1440
bin	5.696e-07	2425
bin	6.408e-07	3629
bin	7.12e-07	4935
bin	7.832e-07	6067
bin	8.544e-07	7318
bin	9.256e-07	8667
bin	9.968e-07	10009
bin	1.068e-06	11372
bin	1.1392e-06	12879
bin	1.2104e-06	14717
bin	1.2816e-06	16595
bin	1.3528e-06	18537
bin	1.424e-06	20713
bin	1.4952e-06	22924
bin	1.5664e-06	24713
bin	1.6376e-06	26426
bin	1.7088e-06	27911
bin	1.78e-06	28627
bin	1.8512e-06	28953
bin	1.9224e-06	28844
bin	1.9936e-06	28367
bin	2.0648e-06	27832
bin	2.136e-06	26581
bin	2.2072e-06	25742
bin	2.2784e-06	24450
bin	2.3496e-06	23179
bin	2.4208e-06	22082
bin	2.492e-06	20761
bin	2.5632e-06	19847
bin	2.6344e-06	18965
bin	2.7056e-06	18014
bin	2.7768e-06	17025
bin	2.848e-06	16071
bin	2.9192e-06	15456
bin	2.9904e-06	14762
bin	3.0616e-06	14233
bin	3.1328e-06	13782
bin	3.204e-06	12830
bin	3.2752e-06	12441
bin	3.3464e-06	12013
bin	3.4176e-06	11498
bin	3.4888e-06	11221
bin	3.56e-06	10858
bin	3.6312e-06	10474
bin	3.7024e-06	10389
bin	3.7736e-06	10114
bin	3.8448e-06	9844
bin	3.916e-06	9587
bin	3.9872e-06	9379
bin	4.0584e-06	9300
bin	4.1296e-06	9015
bin	4.2008e-06	8901
bin	4.272e-06	8766
bin	4.3432e-06	8531
bin	4.4144e-06	8203
bin	4.4856e-06	8161
bin	4.5568e-06	8262
bin	4.628e-06	7857
bin	4.6992e-06	7976
bin	4.7704e-06	7776
bin	4.8416e-06	7681
bin	4.9128e-06	7628
bin	4.984e-06	7549
bin	5.0552e-06	7595
bin	5.1264e-06	7329
bin	5.1976e-06	7318
bin	5.2688e-06	7062
bin	5.34e-06	7123
bin	5.4112e-06	7116
bin	5.4824e-06	7172
bin	5.5536e-06	7143
bin	5.6248e-06	6778
bin	5.696e-06	7029
bin	5.7672e-06	6808
bin	5.8384e-06	6822
bin	5.9096e-06	6647
bin	5.9808e-06	6749
bin	6.052e-06	6668
bin	6.1232e-06	6565
bin	6.1944e-06	6594
bin	6.2656e-06	6633
bin	6.3368e-06	6592
bin	6.408e-06	6519
bin	6.4792e-06	6586
bin	6.5504e-06	6628
bin	6.6216e-06	6516
bin	6.6928e-06	6630
bin	6.764e-06	6421
bin	6.8352e-06	6341
bin	6.9064e-06	6271
bin	6.9776e-06	6265
bin	7.0488e-06	6365
bin	7.12e-06	6288
bin	7.1912e-06	6352
bin	7.2624e-06	6212
bin	7.3336e-06	6309
bin	7.4048e-06	6152
bin	7.476e-06	6069
bin	7.5472e-06	6086
bin	7.6184e-06	6066
bin	7.6896e-06	6232
bin	7.7608e-06	6184
bin	7.832e-06	6056
bin	7.9032e-06	6026
bin	7.9744e-06	6011
bin	8.0456e-06	5994
bin	8.1168e-06	6011
bin	8.188e-06	5977
bin	8.2592e-06	6064
bin	8.3304e-06	6133
bin	8.4016e-06	5902
bin	8.4728e-06	6099
bin	8.544e-06	5972
bin	8.6152e-06	6020
bin	8.6864e-06	5911
bin	8.7576e-06	5996
bin	8.8288e-06	5956
bin	8.9e-06	5995
bin	8.9712e-06	5793
bin	9.0424e-06	5758
bin	9.1136e-06	5964
bin	9.1848e-06	5796
bin	9.256e-06	5868
bin	9.3272e-06	5784
bin	9.3984e-06	5774
bin	9.4696e-06	5786
bin	9.5408e-06	5913
bin	9.612e-06	5765
bin	9.6832e-06	5745
bin	9.7544e-06	5829
bin	9.8256e-06	5760
bin	9.8968e-06	5776
bin	9.968e-06	5740
bin	1.00392e-05	5771
bin	1.01104e-05	5769
bin	1.01816e-05	5798
bin	1.02528e-05	5661
bin	1.0324e-05	5772
bin	1.03952e-05	5677
bin	1.04664e-05	5756
bin	1.05376e-05	5666
bin	1.06088e-05	5601
bin	1.068e-05	5763
bin	1.07512e-05	5778
bin	1.08224e-05	5675
bin	1.08936e-05	5742
bin	1.09648e-05	5863
bin	1.1036e-05	5775
bin	1.11072e-05	5603
bin	1.11784e-05	5769
bin	1.12496e-05	5823
bin	1.13208e-05	5821
bin	1.1392e-05	5735
bin	1.14632e-05	5692
bin	1.15344e-05	5666
bin	1.16056e-05	5648
bin	1.16768e-05	5676
bin	1.1748e-05	5774
bin	1.18192e-05	5716
bin	1.18904e-05	5721
bin	1.19616e-05	5672
bin	1.20328e-05	5777
bin	1.2104e-05	5593
bin	1.21752e-05	5619
bin	1.22464e-05	5577
bin	1.23176e-05	5697
bin	1.23888e-05	5740
bin	1.246e-05	5747
bin	1.25312e-05	5740
bin	1.26024e-05	5684
bin	1.26736e-05	5555
bin	1.27448e-05	5604
bin	1.2816e-05	5686
bin	1.28872e-05	5534
bin	1.29584e-05	5590
bin	1.30296e-05	5572
bin	1.31008e-05	5751
bin	1.3172e-05	5733
bin	1.32432e-05	5625
bin	1.33144e-05	5769
bin	1.33856e-05	5735
bin	1.34568e-05	5597
bin	1.3528e-05	5654
bin	1.35992e-05	5676
bin	1.36704e-05	5551
bin	1.37416e-05	5748
bin	1.38128e-05	5693
bin	1.3884e-05	5546
bin	1.39552e-05	5443
bin	1.40264e-05	5499
bin	1.40976e-05	5594
bin	1.41688e-05	5547
bin	1.424e-05	5693
bin	1.43112e-05	5637
bin	1.43824e-05	5635
bin	1.44536e-05	5617
bin	1.45248e-05	5638
bin	1.4596e-05	5647
bin	1.46672e-05	5498
bin	1.47384e-05	5812
bin	1.48096e-05	5601
bin	1.48808e-05	5608
bin	1.4952e-05	5544
bin	1.50232e-05	5575
bin	1.50944e-05	5542
bin	1.51656e-05	5652
bin	1.52368e-05	5568
bin	1.5308e-05	5568
bin	1.53792e-05	5437
bin	1.54504e-05	5558
bin	1.55216e-05	5501
bin	1.55928e-05	5483
bin	1.5664e-05	5420
bin	1.57352e-05	5519
bin	1.58064e-05	5469
bin	1.58776e-05	5583
bin	1.59488e-05	5573
bin	1.602e-05	5630
bin	1.60912e-05	5480
bin	1.61624e-05	5582
bin	1.62336e-05	5710
bin	1.63048e-05	5549
bin	1.6376e-05	5479
bin	1.64472e-05	5428
bin	1.65184e-05	5442
bin	1.65896e-05	5449
bin	1.66608e-05	5508
bin	1.6732e-05	5466
bin	1.68032e-05	5462
bin	1.68744e-05	5462
bin	1.69456e-05	5534
bin	1.70168e-05	5423
bin	1.7088e-05	5641
bin	1.71592e-05	5536
bin	1.72304e-05	5641
bin	1.73016e-05	5435
bin	1.73728e-05	5453
bin	1.7444e-05	5385
bin	1.75152e-05	5317
bin	1.75864e-05	5298
bin	1.76576e-05	5292
bin	1.77288e-05	5353
bin	1.78e-05	5380
bin	1.78712e-05	5348
bin	1.79424e-05	5373
bin	1.80136e-05	5295
bin	1.80848e-05	5286
bin	1.8156e-05	5375
bin	1.82272e-05	5332
bin	1.82984e-05	5328
bin	1.83696e-05	5274
bin	1.84408e-05	5365
bin	1.8512e-05	5286
bin	1.85832e-05	5211
bin	1.86544e-05	5385
bin	1.87256e-05	5400
bin	1.87968e-05	5371
bin	1.8868e-05	5349
bin	1.89392e-05	5282
bin	1.90104e-05	5363
bin	1.90816e-05	5362
bin	1.91528e-05	5194
bin	1.9224e-05	5224
bin	1.92952e-05	5359
bin	1.93664e-05	5470
bin	1.94376e-05	5265
bin	1.95088e-05	5343
bin	1.958e-05	5286
bin	1.96512e-05	5337
bin	1.97224e-05	5239
bin	1.97936e-05	5324
bin	1.98648e-05	5271
bin	1.9936e-05	5304
bin	2.00072e-05	5261
bin	2.00784e-05	5152
bin	2.01496e-05	5393
bin	2.02208e-05	5466
bin	2.0292e-05	5196
bin	2.03632e-05	5221
bin	2.04344e-05	5249
bin	2.05056e-05	5428
bin	2.05768e-05	5368
bin	2.0648e-05	5305
bin	2.07192e-05	5236
bin	2.07904e-05	5320
bin	2.08616e-05	5317
bin	2.09328e-05	5307
bin	2.1004e-05	5275
bin	2.10752e-05	5274
bin	2.11464e-05	5198
bin	2.12176e-05	5164
bin	2.12888e-05	5277
bin	2.136e-05	5130
bin	2.14312e-05	5258
bin	2.15024e-05	5192
bin	2.15736e-05	5301
bin	2.16448e-05	5200
bin	2.1716e-05	5194
bin	2.17872e-05	5052
bin	2.18584e-05	5359
bin	2.19296e-05	5285
bin	2.20008e-05	5182
bin	2.2072e-05	5198
bin	2.21432e-05	5162
bin	2.22144e-05	5221
bin	2.22856e-05	5275
bin	2.23568e-05	5261
bin	2.2428e-05	5390
bin	2.24992e-05	5422
bin	2.25704e-05	5289
bin	2.26416e-05	5249
bin	2.27128e-05	5252
bin	2.2784e-05	5179
bin	2.28552e-05	5132
bin	2.29264e-05	5264
bin	2.29976e-05	5252
bin	2.30688e-05	5075
bin	2.314e-05	5178
bin	2.32112e-05	5164
bin	2.32824e-05	5173
bin	2.33536e-05	5290
bin	2.34248e-05	5142
bin	2.3496e-05	5139
bin	2.35672e-05	5205
bin	2.36384e-05	5216
bin	2.37096e-05	5198
bin	2.37808e-05	5307
bin	2.3852e-05	5219
bin	2.39232e-05	5198
bin	2.39944e-05	5328
bin	2.40656e-05	5273
bin	2.41368e-05	5212
bin	2.4208e-05	5169
bin	2.42792e-05	5107
bin	2.43504e-05	5162
bin	2.44216e-05	4993
bin	2.44928e-05	5172
bin	2.4564e-05	5052
bin	2.46352e-05	5280
bin	2.47064e-05	5190
bin	2.47776e-05	5171
bin	2.48488e-05	5118
bin	2.492e-05	5185
bin	2.49912e-05	5156
bin	2.50624e-05	5129
bin	2.51336e-05	5137
bin	2.52048e-05	5211
bin	2.5276e-05	5263
bin	2.53472e-05	5152
bin	2.54184e-05	5199
bin	2.54896e-05	5107
bin	2.55608e-05	5091
bin	2.5632e-05	5192
bin	2.57032e-05	5152
bin	2.57744e-05	4943
bin	2.58456e-05	5159
bin	2.59168e-05	5198
bin	2.5988e-05	5096
bin	2.60592e-05	5129
bin	2.61304e-05	5177
bin	2.62016e-05	5096
bin	2.62728e-05	5209
bin	2.6344e-05	5194
bin	2.64152e-05	5046
bin	2.64864e-05	5099
bin	2.65576e-05	5106
bin	2.66288e-05	5143
bin	2.67e-05	5195
bin	2.67712e-05	5082
bin	2.68424e-05	5168
bin	2.69136e-05	5128
bin	2.69848e-05	5133
bin	2.7056e-05	5309
bin	2.71272e-05	5142
bin	2.71984e-05	5194
bin	2.72696e-05	5229
bin	2.73408e-05	5122
bin	2.7412e-05	5135
bin	2.74832e-05	5084
bin	2.75544e-05	5141
bin	2.76256e-05	5089
bin	2.76968e-05	5177
bin	2.7768e-05	5241
bin	2.78392e-05	5187
bin	2.79104e-05	5267
bin	2.79816e-05	5139
bin	2.80528e-05	5261
bin	2.8124e-05	5128
bin	2.81952e-05	5097
bin	2.82664e-05	5226
bin	2.83376e-05	5137
bin	2.84088e-05	5095
bin	2.848e-05	5020
bin	2.85512e-05	5120
bin	2.86224e-05	5058
bin	2.86936e-05	4944
bin	2.87648e-05	5158
bin	2.8836e-05	5155
bin	2.89072e-05	5110
bin	2.89784e-05	5000
bin	2.90496e-05	5133
bin	2.91208e-05	5106
bin	2.9192e-05	5234
bin	2.92632e-05	5143
bin	2.93344e-05	4996
bin	2.94056e-05	5080
bin	2.94768e-05	5081
bin	2.9548e-05	4973
bin	2.96192e-05	5014
bin	2.96904e-05	4984
bin	2.97616e-05	5062
bin	2.98328e-05	5063
bin	2.9904e-05	5028
bin	2.99752e-05	4948
bin	3.00464e-05	4846
bin	3.01176e-05	4863
bin	3.01888e-05	4968
bin	3.026e-05	4919
bin	3.03312e-05	4845
bin	3.04024e-05	4946
bin	3.04736e-05	5009
bin	3.05448e-05	4956
bin	3.0616e-05	4875
bin	3.06872e-05	4952
bin	3.07584e-05	4881
bin	3.08296e-05	4888
bin	3.09008e-05	4954
bin	3.0972e-05	4978
bin	3.10432e-05	5010
bin	3.11144e-05	4977
bin	3.11856e-05	5047
bin	3.12568e-05	4906
bin	3.1328e-05	5040
bin	3.13992e-05	4894
bin	3.14704e-05	4994
bin	3.15416e-05	4963
bin	3.16128e-05	4931
bin	3.1684e-05	4873
bin	3.17552e-05	4826
bin	3.18264e-05	4993
bin	3.18976e-05	4897
bin	3.19688e-05	4846
bin	3.204e-05	4891
bin	3.21112e-05	5062
bin	3.21824e-05	5009
bin	3.22536e-05	4972
bin	3.23248e-05	4951
bin	3.2396e-05	5137
bin	3.24672e-05	5134
bin	3.25384e-05	4862
bin	3.26096e-05	4935
bin	3.26808e-05	5100
bin	3.2752e-05	4933
bin	3.28232e-05	4947
bin	3.28944e-05	4884
bin	3.29656e-05	4864
bin	3.30368e-05	4818
bin	3.3108e-05	5007
bin	3.31792e-05	4972
bin	3.32504e-05	4920
bin	3.33216e-05	4972
bin	3.33928e-05	4902
bin	3.3464e-05	4943
bin	3.35352e-05	5006
bin	3.36064e-05	4929
bin	3.36776e-05	4864
bin	3.37488e-05	4965
bin	3.382e-05	4991
bin	3.38912e-05	5042
bin	3.39624e-05	4984
bin	3.40336e-05	4930
bin	3.41048e-05	5064
bin	3.4176e-05	4985
bin	3.42472e-05	4885
bin	3.43184e-05	4914
bin	3.43896e-05	5002
bin	3.44608e-05	5000
bin	3.4532e-05	5024
bin	3.46032e-05	4909
bin	3.46744e-05	4830
bin	3.47456e-05	4914
bin	3.48168e-05	5001
bin	3.4888e-05	4868
bin	3.49592e-05	4937
bin	3.50304e-05	4996
bin	3.51016e-05	4865
bin	3.51728e-05	4909
bin	3.5244e-05	4854
bin	3.53152e-05	5000
bin	3.53864e-05	4863
bin	3.54576e-05	4880
bin	3.55288e-05	4795
bin	3.56e-05	3034987
statistic Torus3d_bub.timer 	"Life Times"
field count 6291456
field mean 0.00048191052604744
field stddev 0.00033865849252473
field sum 3031.9188705643
field sqrsum 2.1826779151547
field min 2.91999923e-07
field max 0.001695238666574
bin	-INF	0
bin	0	24
bin	8.544e-07	208
bin	1.7088e-06	677
bin	2.5632e-06	1416
bin	3.4176e-06	2172
bin	4.272e-06	3100
bin	5.1264e-06	3989
bin	5.9808e-06	4912
bin	6.8352e-06	5799
bin	7.6896e-06	6882
bin	8.544e-06	8095
bin	9.3984e-06	9364
bin	1.02528e-05	10506
bin	1.11072e-05	11293
bin	1.19616e-05	12182
bin	1.2816e-05	12993
bin	1.36704e-05	14161
bin	1.45248e-05	14991
bin	1.53792e-05	16112
bin	1.62336e-05	17041
bin	1.7088e-05	17758
bin	1.79424e-05	18987
bin	1.87968e-05	20098
bin	1.96512e-05	21306
bin	2.05056e-05	22309
bin	2.136e-05	23436
bin	2.22144e-05	24355
bin	2.30688e-05	25403
bin	2.39232e-05	26510
bin	2.47776e-05	27166
bin	2.5632e-05	26717
bin	2.64864e-05	26240
bin	2.73408e-05	25115
bin	2.81952e-05	23765
bin	2.90496e-05	22361
bin	2.9904e-05	21263
bin	3.07584e-05	19666
bin	3.16128e-05	18398
bin	3.24672e-05	17180
bin	3.33216e-05	15818
bin	3.4176e-05	14731
bin	3.50304e-05	13577
bin	3.58848e-05	12755
bin	3.67392e-05	11945
bin	3.75936e-05	11298
bin	3.8448e-05	10902
bin	3.93024e-05	10366
bin	4.01568e-05	10149
bin	4.10112e-05	9901
bin	4.18656e-05	9703
bin	4.272e-05	9616
bin	4.35744e-05	9619
bin	4.44288e-05	9424
bin	4.52832e-05	9124
bin	4.61376e-05	9115
bin	4.6992e-05	9103
bin	4.78464e-05	8937
bin	4.87008e-05	8903
bin	4.95552e-05	9043
bin	5.04096e-05	8837
bin	5.1264e-05	8787
bin	5.21184e-05	8398
bin	5.29728e-05	8222
bin	5.38272e-05	8180
bin	5.46816e-05	7832
bin	5.5536e-05	7563
bin	5.63904e-05	7469
bin	5.72448e-05	7355
bin	5.80992e-05	7012
bin	5.89536e-05	6849
bin	5.9808e-05	6746
bin	6.06624e-05	6622
bin	6.15168e-05	6631
bin	6.23712e-05	6423
bin	6.32256e-05	6418
bin	6.408e-05	6210
bin	6.49344e-05	6174
bin	6.57888e-05	6296
bin	6.66432e-05	6229
bin	6.74976e-05	6128
bin	6.8352e-05	6130
bin	6.92064e-05	6070
bin	7.00608e-05	6141
bin	7.09152e-05	6101
bin	7.17696e-05	6132
bin	7.2624e-05	5987
bin	7.34784e-05	5949
bin	7.43328e-05	6004
bin	7.51872e-05	6032
bin	7.60416e-05	6067
bin	7.6896e-05	6108
bin	7.77504e-05	5917
bin	7.86048e-05	5941
bin	7.94592e-05	5835
bin	8.03136e-05	5859
bin	8.1168e-05	5817
bin	8.20224e-05	5802
bin	8.28768e-05	5656
bin	8.37312e-05	5516
bin	8.45856e-05	5503
bin	8.544e-05	5569
bin	8.62944e-05	5532
bin	8.71488e-05	5443
bin	8.80032e-05	5562
bin	8.88576e-05	5592
bin	8.9712e-05	5565
bin	9.05664e-05	5425
bin	9.14208e-05	5577
bin	9.22752e-05	5395
bin	9.31296e-05	5439
bin	9.3984e-05	5394
bin	9.48384e-05	5473
bin	9.56928e-05	5415
bin	9.65472e-05	5385
bin	9.74016e-05	5473
bin	9.8256e-05	5336
bin	9.91104e-05	5379
bin	9.99648e-05	5401
bin	0.0001008192	5547
bin	0.0001016736	5416
bin	0.000102528	5384
bin	0.0001033824	5311
bin	0.0001042368	5395
bin	0.0001050912	5440
bin	0.0001059456	5315
bin	0.0001068	5385
bin	0.0001076544	5374
bin	0.0001085088	5262
bin	0.0001093632	5200
bin	0.0001102176	5329
bin	0.000111072	5257
bin	0.0001119264	5286
bin	0.0001127808	5202
bin	0.0001136352	5218
bin	0.0001144896	5264
bin	0.000115344	5176
bin	0.0001161984	5236
bin	0.0001170528	5233
bin	0.0001179072	5315
bin	0.0001187616	5339
bin	0.000119616	5261
bin	0.0001204704	5216
bin	0.0001213248	5145
bin	0.0001221792	5199
bin	0.0001230336	5284
bin	0.000123888	5285
bin	0.0001247424	5266
bin	0.0001255968	5155
bin	0.0001264512	5249
bin	0.0001273056	5240
bin	0.00012816	5249
bin	0.0001290144	5212
bin	0.0001298688	5276
bin	0.0001307232	5296
bin	0.0001315776	5202
bin	0.000132432	5312
bin	0.0001332864	5292
bin	0.0001341408	5306
bin	0.0001349952	5196
bin	0.0001358496	5244
bin	0.000136704	5188
bin	0.0001375584	5171
bin	0.0001384128	5118
bin	0.0001392672	5144
bin	0.0001401216	5061
bin	0.000140976	5036
bin	0.0001418304	4946
bin	0.0001426848	5090
bin	0.0001435392	5058
bin	0.0001443936	5056
bin	0.000145248	5089
bin	0.0001461024	5113
bin	0.0001469568	5109
bin	0.0001478112	5080
bin	0.0001486656	5002
bin	0.00014952	5087
bin	0.0001503744	5117
bin	0.0001512288	5131
bin	0.0001520832	5204
bin	0.0001529376	5161
bin	0.000153792	5130
bin	0.0001546464	5301
bin	0.0001555008	5185
bin	0.0001563552	5199
bin	0.0001572096	5081
bin	0.000158064	5120
bin	0.0001589184	5031
bin	0.0001597728	5051
bin	0.0001606272	5185
bin	0.0001614816	5116
bin	0.000162336	5043
bin	0.0001631904	5073
bin	0.0001640448	5038
bin	0.0001648992	5021
bin	0.0001657536	5050
bin	0.000166608	5012
bin	0.0001674624	5012
bin	0.0001683168	5029
bin	0.0001691712	4996
bin	0.0001700256	5107
bin	0.00017088	5103
bin	0.0001717344	5229
bin	0.0001725888	5081
bin	0.0001734432	5060
bin	0.0001742976	5071
bin	0.000175152	5071
bin	0.0001760064	5052
bin	0.0001768608	5153
bin	0.0001777152	5057
bin	0.0001785696	5127
bin	0.000179424	5177
bin	0.0001802784	5133
bin	0.0001811328	5176
bin	0.0001819872	4991
bin	0.0001828416	5127
bin	0.000183696	5028
bin	0.0001845504	4999
bin	0.0001854048	5010
bin	0.0001862592	5155
bin	0.0001871136	5109
bin	0.000187968	5137
bin	0.0001888224	4986
bin	0.0001896768	5045
bin	0.0001905312	4910
bin	0.0001913856	4990
bin	0.00019224	5001
bin	0.0001930944	4983
bin	0.0001939488	5048
bin	0.0001948032	5041
bin	0.0001956576	5027
bin	0.000196512	4881
bin	0.0001973664	4950
bin	0.0001982208	4891
bin	0.0001990752	4865
bin	0.0001999296	4847
bin	0.000200784	4872
bin	0.0002016384	4911
bin	0.0002024928	4977
bin	0.0002033472	4930
bin	0.0002042016	4878
bin	0.000205056	5097
bin	0.0002059104	5055
bin	0.0002067648	5043
bin	0.0002076192	4964
bin	0.0002084736	5001
bin	0.000209328	4943
bin	0.0002101824	4924
bin	0.0002110368	4916
bin	0.0002118912	4951
bin	0.0002127456	4982
bin	0.0002136	4975
bin	0.0002144544	5047
bin	0.0002153088	4879
bin	0.0002161632	4971
bin	0.0002170176	4947
bin	0.000217872	4977
bin	0.0002187264	4905
bin	0.0002195808	4939
bin	0.0002204352	4896
bin	0.0002212896	4926
bin	0.000222144	4913
bin	0.0002229984	4916
bin	0.0002238528	4821
bin	0.0002247072	4936
bin	0.0002255616	4865
bin	0.000226416	4837
bin	0.0002272704	4881
bin	0.0002281248	4813
bin	0.0002289792	4905
bin	0.0002298336	4846
bin	0.000230688	4871
bin	0.0002315424	4911
bin	0.0002323968	4939
bin	0.0002332512	4744
bin	0.0002341056	4839
bin	0.00023496	4744
bin	0.0002358144	4728
bin	0.0002366688	4810
bin	0.0002375232	4932
bin	0.0002383776	4678
bin	0.000239232	4823
bin	0.0002400864	4790
bin	0.0002409408	4791
bin	0.0002417952	4832
bin	0.0002426496	4793
bin	0.000243504	4801
bin	0.0002443584	4680
bin	0.0002452128	4736
bin	0.0002460672	4745
bin	0.0002469216	4688
bin	0.000247776	4708
bin	0.0002486304	4823
bin	0.0002494848	4754
bin	0.0002503392	4789
bin	0.0002511936	4824
bin	0.000252048	4786
bin	0.0002529024	4814
bin	0.0002537568	4782
bin	0.0002546112	4755
bin	0.0002554656	4844
bin	0.00025632	4805
bin	0.0002571744	4667
bin	0.0002580288	4687
bin	0.0002588832	4785
bin	0.0002597376	4704
bin	0.000260592	4710
bin	0.0002614464	4654
bin	0.0002623008	4843
bin	0.0002631552	4748
bin	0.0002640096	4722
bin	0.000264864	4688
bin	0.0002657184	4682
bin	0.0002665728	4749
bin	0.0002674272	4869
bin	0.0002682816	4799
bin	0.000269136	4721
bin	0.0002699904	4567
bin	0.0002708448	4637
bin	0.0002716992	4565
bin	0.0002725536	4650
bin	0.000273408	4786
bin	0.0002742624	4732
bin	0.0002751168	4815
bin	0.0002759712	4642
bin	0.0002768256	4579
bin	0.00027768	4654
bin	0.0002785344	4611
bin	0.0002793888	4632
bin	0.0002802432	4656
bin	0.0002810976	4663
bin	0.000281952	4758
bin	0.0002828064	4732
bin	0.0002836608	4598
bin	0.0002845152	4638
bin	0.0002853696	4651
bin	0.000286224	4558
bin	0.0002870784	4542
bin	0.0002879328	4649
bin	0.0002887872	4693
bin	0.0002896416	4658
bin	0.000290496	4671
bin	0.0002913504	4575
bin	0.0002922048	4512
bin	0.0002930592	4565
bin	0.0002939136	4539
bin	0.000294768	4547
bin	0.0002956224	4438
bin	0.0002964768	4626
bin	0.0002973312	4597
bin	0.0002981856	4590
bin	0.00029904	4521
bin	0.0002998944	4738
bin	0.0003007488	4422
bin	0.0003016032	4532
bin	0.0003024576	4541
bin	0.000303312	4522
bin	0.0003041664	4497
bin	0.0003050208	4613
bin	0.0003058752	4570
bin	0.0003067296	4635
bin	0.000307584	4619
bin	0.0003084384	4513
bin	0.0003092928	4592
bin	0.0003101472	4517
bin	0.0003110016	4582
bin	0.000311856	4639
bin	0.0003127104	4594
bin	0.0003135648	4583
bin	0.0003144192	4550
bin	0.0003152736	4546
bin	0.000316128	4547
bin	0.0003169824	4547
bin	0.0003178368	4597
bin	0.0003186912	4665
bin	0.0003195456	4568
bin	0.0003204	4625
bin	0.0003212544	4604
bin	0.0003221088	4646
bin	0.0003229632	4581
bin	0.0003238176	4691
bin	0.000324672	4626
bin	0.0003255264	4703
bin	0.0003263808	4682
bin	0.0003272352	4638
bin	0.0003280896	4683
bin	0.000328944	4574
bin	0.0003297984	4543
bin	0.0003306528	4512
bin	0.0003315072	4640
bin	0.0003323616	4615
bin	0.000333216	4570
bin	0.0003340704	4581
bin	0.0003349248	4607
bin	0.0003357792	4559
bin	0.0003366336	4559
bin	0.000337488	4596
bin	0.0003383424	4600
bin	0.0003391968	4526
bin	0.0003400512	4513
bin	0.0003409056	4497
bin	0.00034176	4450
bin	0.0003426144	4590
bin	0.0003434688	4624
bin	0.0003443232	4753
bin	0.0003451776	4608
bin	0.000346032	4578
bin	0.0003468864	4594
bin	0.0003477408	4556
bin	0.0003485952	4510
bin	0.0003494496	4623
bin	0.000350304	4659
bin	0.0003511584	4610
bin	0.0003520128	4764
bin	0.0003528672	4675
bin	0.0003537216	4620
bin	0.000354576	4670
bin	0.0003554304	4549
bin	0.0003562848	4676
bin	0.0003571392	4586
bin	0.0003579936	4536
bin	0.000358848	4621
bin	0.0003597024	4601
bin	0.0003605568	4589
bin	0.0003614112	4365
bin	0.0003622656	4516
bin	0.00036312	4437
bin	0.0003639744	4467
bin	0.0003648288	4474
bin	0.0003656832	4619
bin	0.0003665376	4554
bin	0.000367392	4416
bin	0.0003682464	4498
bin	0.0003691008	4547
bin	0.0003699552	4546
bin	0.0003708096	4528
bin	0.000371664	4608
bin	0.0003725184	4424
bin	0.0003733728	4535
bin	0.0003742272	4499
bin	0.0003750816	4625
bin	0.000375936	4513
bin	0.0003767904	4457
bin	0.0003776448	4496
bin	0.0003784992	4583
bin	0.0003793536	4592
bin	0.000380208	4557
bin	0.0003810624	4578
bin	0.0003819168	4488
bin	0.0003827712	4588
bin	0.0003836256	4532
bin	0.00038448	4536
bin	0.0003853344	4512
bin	0.0003861888	4502
bin	0.0003870432	4560
bin	0.0003878976	4642
bin	0.000388752	4518
bin	0.0003896064	4540
bin	0.0003904608	4550
bin	0.0003913152	4471
bin	0.0003921696	4501
bin	0.000393024	4530
bin	0.0003938784	4410
bin	0.0003947328	4493
bin	0.0003955872	4595
bin	0.0003964416	4533
bin	0.000397296	4577
bin	0.0003981504	4489
bin	0.0003990048	4445
bin	0.0003998592	4531
bin	0.0004007136	4466
bin	0.000401568	4416
bin	0.0004024224	4357
bin	0.0004032768	4421
bin	0.0004041312	4479
bin	0.0004049856	4460
bin	0.00040584	4520
bin	0.0004066944	4463
bin	0.0004075488	4667
bin	0.0004084032	4496
bin	0.0004092576	4500
bin	0.000410112	4498
bin	0.0004109664	4475
bin	0.0004118208	4299
bin	0.0004126752	4469
bin	0.0004135296	4435
bin	0.000414384	4312
bin	0.0004152384	4363
bin	0.0004160928	4409
bin	0.0004169472	4493
bin	0.0004178016	4386
bin	0.000418656	4436
bin	0.0004195104	4450
bin	0.0004203648	4400
bin	0.0004212192	4513
bin	0.0004220736	4420
bin	0.000422928	4509
bin	0.0004237824	4432
bin	0.0004246368	4537
bin	0.0004254912	4428
bin	0.0004263456	4540
bin	0.0004272	3293312
