version 2
run Uniform-76-20120709-18:57:37-24857
attr alg 0
attr buf 8
attr configname Uniform
attr datetime 20120709-18:57:37
attr delta 1
attr experiment Uniform
attr ext false
attr inifile altro.ini
attr iterationvars "$buf=8, $ext=false, $ofedge=2, $delta=1, $alg=0"
attr iterationvars2 "$buf=8, $ext=false, $ofedge=2, $delta=1, $alg=0, $repetition=0"
attr measurement "$buf=8, $ext=false, $ofedge=2, $delta=1, $alg=0"
attr network Torus3d_bub
attr ofedge 2
attr processid 24857
attr repetition 0
attr replication #0
attr resultdir altro-results
attr runnumber 76
attr seedset 76

scalar . 	alg 	0
scalar . 	buf 	8
scalar . 	delta 	1
scalar . 	ofedge 	2
scalar Torus3d_bub.timer 	#endTime 	0.001626586997482
scalar Torus3d_bub.timer 	#totalHops 	75507696
scalar Torus3d_bub.timer 	#totalPacks 	6291456
scalar Torus3d_bub.timer 	#totalDerouted 	0
scalar Torus3d_bub.timer 	#totalOutFlanked 	0
scalar Torus3d_bub.timer 	#totalCQRed 	0
scalar Torus3d_bub.timer 	#LB 	0.000786432
scalar Torus3d_bub.timer 	#ratio 	0.48348597475414
statistic Torus3d_bub.timer 	"Hop Times"
field count 6289824
field mean 3.6530048955768e-05
field stddev 3.6463848862772e-05
field sum 229.76757864316
field sqrsum 0.01675644675766
field min 3.765e-07
field max 0.001036972333218
bin	-INF	0
bin	0	0
bin	7.12e-08	0
bin	1.424e-07	0
bin	2.136e-07	0
bin	2.848e-07	0
bin	3.56e-07	217
bin	4.272e-07	981
bin	4.984e-07	2000
bin	5.696e-07	3080
bin	6.408e-07	4466
bin	7.12e-07	5696
bin	7.832e-07	6915
bin	8.544e-07	7938
bin	9.256e-07	9106
bin	9.968e-07	9879
bin	1.068e-06	11066
bin	1.1392e-06	12067
bin	1.2104e-06	13412
bin	1.2816e-06	14919
bin	1.3528e-06	16532
bin	1.424e-06	17945
bin	1.4952e-06	19446
bin	1.5664e-06	20889
bin	1.6376e-06	22015
bin	1.7088e-06	22866
bin	1.78e-06	23589
bin	1.8512e-06	23854
bin	1.9224e-06	23711
bin	1.9936e-06	23648
bin	2.0648e-06	23232
bin	2.136e-06	22470
bin	2.2072e-06	21857
bin	2.2784e-06	21119
bin	2.3496e-06	20437
bin	2.4208e-06	19625
bin	2.492e-06	18970
bin	2.5632e-06	17953
bin	2.6344e-06	17710
bin	2.7056e-06	16677
bin	2.7768e-06	16151
bin	2.848e-06	15431
bin	2.9192e-06	14931
bin	2.9904e-06	14392
bin	3.0616e-06	13983
bin	3.1328e-06	13634
bin	3.204e-06	13135
bin	3.2752e-06	12613
bin	3.3464e-06	12427
bin	3.4176e-06	12160
bin	3.4888e-06	11755
bin	3.56e-06	11561
bin	3.6312e-06	11259
bin	3.7024e-06	10885
bin	3.7736e-06	10787
bin	3.8448e-06	10598
bin	3.916e-06	10396
bin	3.9872e-06	10326
bin	4.0584e-06	10148
bin	4.1296e-06	9890
bin	4.2008e-06	9854
bin	4.272e-06	9725
bin	4.3432e-06	9440
bin	4.4144e-06	9412
bin	4.4856e-06	9263
bin	4.5568e-06	9057
bin	4.628e-06	8994
bin	4.6992e-06	8963
bin	4.7704e-06	8777
bin	4.8416e-06	8704
bin	4.9128e-06	8639
bin	4.984e-06	8577
bin	5.0552e-06	8496
bin	5.1264e-06	8530
bin	5.1976e-06	8409
bin	5.2688e-06	8393
bin	5.34e-06	8388
bin	5.4112e-06	8296
bin	5.4824e-06	8305
bin	5.5536e-06	8048
bin	5.6248e-06	8078
bin	5.696e-06	8063
bin	5.7672e-06	8109
bin	5.8384e-06	8017
bin	5.9096e-06	8178
bin	5.9808e-06	7998
bin	6.052e-06	7977
bin	6.1232e-06	7875
bin	6.1944e-06	7844
bin	6.2656e-06	7815
bin	6.3368e-06	7684
bin	6.408e-06	7547
bin	6.4792e-06	7767
bin	6.5504e-06	7681
bin	6.6216e-06	7719
bin	6.6928e-06	7448
bin	6.764e-06	7470
bin	6.8352e-06	7459
bin	6.9064e-06	7493
bin	6.9776e-06	7524
bin	7.0488e-06	7612
bin	7.12e-06	7378
bin	7.1912e-06	7467
bin	7.2624e-06	7298
bin	7.3336e-06	7347
bin	7.4048e-06	7265
bin	7.476e-06	7316
bin	7.5472e-06	7271
bin	7.6184e-06	7154
bin	7.6896e-06	7165
bin	7.7608e-06	7166
bin	7.832e-06	7061
bin	7.9032e-06	7097
bin	7.9744e-06	7215
bin	8.0456e-06	7078
bin	8.1168e-06	7032
bin	8.188e-06	6845
bin	8.2592e-06	6956
bin	8.3304e-06	6879
bin	8.4016e-06	7036
bin	8.4728e-06	6992
bin	8.544e-06	6858
bin	8.6152e-06	6915
bin	8.6864e-06	6846
bin	8.7576e-06	6797
bin	8.8288e-06	6818
bin	8.9e-06	6836
bin	8.9712e-06	6645
bin	9.0424e-06	6797
bin	9.1136e-06	6960
bin	9.1848e-06	6894
bin	9.256e-06	6936
bin	9.3272e-06	6890
bin	9.3984e-06	6961
bin	9.4696e-06	6929
bin	9.5408e-06	6944
bin	9.612e-06	6917
bin	9.6832e-06	6958
bin	9.7544e-06	6755
bin	9.8256e-06	6897
bin	9.8968e-06	6930
bin	9.968e-06	6844
bin	1.00392e-05	6834
bin	1.01104e-05	6747
bin	1.01816e-05	6833
bin	1.02528e-05	6716
bin	1.0324e-05	6677
bin	1.03952e-05	6744
bin	1.04664e-05	6701
bin	1.05376e-05	6775
bin	1.06088e-05	6749
bin	1.068e-05	6765
bin	1.07512e-05	6651
bin	1.08224e-05	6608
bin	1.08936e-05	6651
bin	1.09648e-05	6803
bin	1.1036e-05	6792
bin	1.11072e-05	6705
bin	1.11784e-05	6645
bin	1.12496e-05	6683
bin	1.13208e-05	6747
bin	1.1392e-05	6717
bin	1.14632e-05	6829
bin	1.15344e-05	6724
bin	1.16056e-05	6618
bin	1.16768e-05	6725
bin	1.1748e-05	6647
bin	1.18192e-05	6772
bin	1.18904e-05	6649
bin	1.19616e-05	6656
bin	1.20328e-05	6712
bin	1.2104e-05	6609
bin	1.21752e-05	6592
bin	1.22464e-05	6664
bin	1.23176e-05	6708
bin	1.23888e-05	6808
bin	1.246e-05	6712
bin	1.25312e-05	6522
bin	1.26024e-05	6555
bin	1.26736e-05	6523
bin	1.27448e-05	6584
bin	1.2816e-05	6547
bin	1.28872e-05	6631
bin	1.29584e-05	6621
bin	1.30296e-05	6715
bin	1.31008e-05	6694
bin	1.3172e-05	6590
bin	1.32432e-05	6598
bin	1.33144e-05	6600
bin	1.33856e-05	6504
bin	1.34568e-05	6718
bin	1.3528e-05	6603
bin	1.35992e-05	6621
bin	1.36704e-05	6679
bin	1.37416e-05	6634
bin	1.38128e-05	6436
bin	1.3884e-05	6562
bin	1.39552e-05	6485
bin	1.40264e-05	6510
bin	1.40976e-05	6462
bin	1.41688e-05	6422
bin	1.424e-05	6641
bin	1.43112e-05	6536
bin	1.43824e-05	6479
bin	1.44536e-05	6544
bin	1.45248e-05	6403
bin	1.4596e-05	6474
bin	1.46672e-05	6427
bin	1.47384e-05	6520
bin	1.48096e-05	6519
bin	1.48808e-05	6579
bin	1.4952e-05	6460
bin	1.50232e-05	6439
bin	1.50944e-05	6504
bin	1.51656e-05	6475
bin	1.52368e-05	6459
bin	1.5308e-05	6391
bin	1.53792e-05	6405
bin	1.54504e-05	6463
bin	1.55216e-05	6474
bin	1.55928e-05	6447
bin	1.5664e-05	6311
bin	1.57352e-05	6347
bin	1.58064e-05	6454
bin	1.58776e-05	6240
bin	1.59488e-05	6348
bin	1.602e-05	6444
bin	1.60912e-05	6437
bin	1.61624e-05	6394
bin	1.62336e-05	6614
bin	1.63048e-05	6543
bin	1.6376e-05	6373
bin	1.64472e-05	6376
bin	1.65184e-05	6533
bin	1.65896e-05	6463
bin	1.66608e-05	6342
bin	1.6732e-05	6444
bin	1.68032e-05	6320
bin	1.68744e-05	6356
bin	1.69456e-05	6378
bin	1.70168e-05	6387
bin	1.7088e-05	6323
bin	1.71592e-05	6313
bin	1.72304e-05	6366
bin	1.73016e-05	6307
bin	1.73728e-05	6276
bin	1.7444e-05	6414
bin	1.75152e-05	6294
bin	1.75864e-05	6331
bin	1.76576e-05	6383
bin	1.77288e-05	6298
bin	1.78e-05	6453
bin	1.78712e-05	6263
bin	1.79424e-05	6246
bin	1.80136e-05	6394
bin	1.80848e-05	6213
bin	1.8156e-05	6354
bin	1.82272e-05	6240
bin	1.82984e-05	6353
bin	1.83696e-05	6176
bin	1.84408e-05	6219
bin	1.8512e-05	6333
bin	1.85832e-05	6231
bin	1.86544e-05	6294
bin	1.87256e-05	6209
bin	1.87968e-05	6320
bin	1.8868e-05	6113
bin	1.89392e-05	6378
bin	1.90104e-05	6320
bin	1.90816e-05	6291
bin	1.91528e-05	6309
bin	1.9224e-05	6359
bin	1.92952e-05	6308
bin	1.93664e-05	6176
bin	1.94376e-05	6333
bin	1.95088e-05	6228
bin	1.958e-05	6264
bin	1.96512e-05	6300
bin	1.97224e-05	6200
bin	1.97936e-05	6298
bin	1.98648e-05	6323
bin	1.9936e-05	6392
bin	2.00072e-05	6283
bin	2.00784e-05	6176
bin	2.01496e-05	6214
bin	2.02208e-05	6162
bin	2.0292e-05	6236
bin	2.03632e-05	6347
bin	2.04344e-05	6300
bin	2.05056e-05	6276
bin	2.05768e-05	6242
bin	2.0648e-05	6121
bin	2.07192e-05	6198
bin	2.07904e-05	6214
bin	2.08616e-05	6187
bin	2.09328e-05	6176
bin	2.1004e-05	6234
bin	2.10752e-05	6263
bin	2.11464e-05	6331
bin	2.12176e-05	6228
bin	2.12888e-05	6259
bin	2.136e-05	6353
bin	2.14312e-05	6164
bin	2.15024e-05	6202
bin	2.15736e-05	6211
bin	2.16448e-05	6059
bin	2.1716e-05	6166
bin	2.17872e-05	6149
bin	2.18584e-05	6052
bin	2.19296e-05	6257
bin	2.20008e-05	6108
bin	2.2072e-05	6146
bin	2.21432e-05	6063
bin	2.22144e-05	6039
bin	2.22856e-05	5996
bin	2.23568e-05	6102
bin	2.2428e-05	6085
bin	2.24992e-05	6230
bin	2.25704e-05	6073
bin	2.26416e-05	6161
bin	2.27128e-05	6176
bin	2.2784e-05	6227
bin	2.28552e-05	6136
bin	2.29264e-05	6287
bin	2.29976e-05	6194
bin	2.30688e-05	6313
bin	2.314e-05	6127
bin	2.32112e-05	6207
bin	2.32824e-05	6223
bin	2.33536e-05	6341
bin	2.34248e-05	6273
bin	2.3496e-05	6317
bin	2.35672e-05	6328
bin	2.36384e-05	6212
bin	2.37096e-05	6186
bin	2.37808e-05	6253
bin	2.3852e-05	6164
bin	2.39232e-05	6079
bin	2.39944e-05	6215
bin	2.40656e-05	6169
bin	2.41368e-05	6153
bin	2.4208e-05	5928
bin	2.42792e-05	5996
bin	2.43504e-05	6078
bin	2.44216e-05	6050
bin	2.44928e-05	6103
bin	2.4564e-05	6028
bin	2.46352e-05	6074
bin	2.47064e-05	6002
bin	2.47776e-05	6222
bin	2.48488e-05	5961
bin	2.492e-05	6061
bin	2.49912e-05	6043
bin	2.50624e-05	5960
bin	2.51336e-05	6153
bin	2.52048e-05	6043
bin	2.5276e-05	5974
bin	2.53472e-05	6056
bin	2.54184e-05	6044
bin	2.54896e-05	6146
bin	2.55608e-05	6022
bin	2.5632e-05	6016
bin	2.57032e-05	5907
bin	2.57744e-05	5937
bin	2.58456e-05	6035
bin	2.59168e-05	6037
bin	2.5988e-05	6053
bin	2.60592e-05	5960
bin	2.61304e-05	5880
bin	2.62016e-05	5813
bin	2.62728e-05	5978
bin	2.6344e-05	6034
bin	2.64152e-05	5913
bin	2.64864e-05	5759
bin	2.65576e-05	5782
bin	2.66288e-05	5751
bin	2.67e-05	5820
bin	2.67712e-05	5728
bin	2.68424e-05	5839
bin	2.69136e-05	5840
bin	2.69848e-05	5945
bin	2.7056e-05	5934
bin	2.71272e-05	5750
bin	2.71984e-05	5937
bin	2.72696e-05	5792
bin	2.73408e-05	5963
bin	2.7412e-05	5868
bin	2.74832e-05	5834
bin	2.75544e-05	5939
bin	2.76256e-05	5854
bin	2.76968e-05	5976
bin	2.7768e-05	5894
bin	2.78392e-05	5916
bin	2.79104e-05	5839
bin	2.79816e-05	5797
bin	2.80528e-05	5790
bin	2.8124e-05	5949
bin	2.81952e-05	5885
bin	2.82664e-05	5802
bin	2.83376e-05	5862
bin	2.84088e-05	5918
bin	2.848e-05	5918
bin	2.85512e-05	5894
bin	2.86224e-05	5923
bin	2.86936e-05	5851
bin	2.87648e-05	5836
bin	2.8836e-05	5864
bin	2.89072e-05	5893
bin	2.89784e-05	5831
bin	2.90496e-05	5832
bin	2.91208e-05	5728
bin	2.9192e-05	5792
bin	2.92632e-05	5853
bin	2.93344e-05	5888
bin	2.94056e-05	5840
bin	2.94768e-05	5871
bin	2.9548e-05	5811
bin	2.96192e-05	5870
bin	2.96904e-05	5886
bin	2.97616e-05	5839
bin	2.98328e-05	5852
bin	2.9904e-05	5799
bin	2.99752e-05	5933
bin	3.00464e-05	5935
bin	3.01176e-05	5899
bin	3.01888e-05	5814
bin	3.026e-05	5852
bin	3.03312e-05	5767
bin	3.04024e-05	5795
bin	3.04736e-05	5824
bin	3.05448e-05	5813
bin	3.0616e-05	5643
bin	3.06872e-05	5837
bin	3.07584e-05	5750
bin	3.08296e-05	5970
bin	3.09008e-05	5736
bin	3.0972e-05	5859
bin	3.10432e-05	5834
bin	3.11144e-05	5797
bin	3.11856e-05	5871
bin	3.12568e-05	5997
bin	3.1328e-05	5892
bin	3.13992e-05	5988
bin	3.14704e-05	5992
bin	3.15416e-05	5948
bin	3.16128e-05	5815
bin	3.1684e-05	5855
bin	3.17552e-05	5692
bin	3.18264e-05	5863
bin	3.18976e-05	5914
bin	3.19688e-05	5742
bin	3.204e-05	5703
bin	3.21112e-05	5815
bin	3.21824e-05	5764
bin	3.22536e-05	5739
bin	3.23248e-05	5737
bin	3.2396e-05	5799
bin	3.24672e-05	5653
bin	3.25384e-05	5791
bin	3.26096e-05	5895
bin	3.26808e-05	5821
bin	3.2752e-05	5884
bin	3.28232e-05	5840
bin	3.28944e-05	5841
bin	3.29656e-05	5820
bin	3.30368e-05	5851
bin	3.3108e-05	5996
bin	3.31792e-05	6049
bin	3.32504e-05	5977
bin	3.33216e-05	5944
bin	3.33928e-05	5907
bin	3.3464e-05	5772
bin	3.35352e-05	5854
bin	3.36064e-05	5784
bin	3.36776e-05	5794
bin	3.37488e-05	5863
bin	3.382e-05	5930
bin	3.38912e-05	5892
bin	3.39624e-05	5889
bin	3.40336e-05	5992
bin	3.41048e-05	5810
bin	3.4176e-05	5772
bin	3.42472e-05	5762
bin	3.43184e-05	5926
bin	3.43896e-05	5919
bin	3.44608e-05	5986
bin	3.4532e-05	5798
bin	3.46032e-05	5906
bin	3.46744e-05	5911
bin	3.47456e-05	5771
bin	3.48168e-05	5763
bin	3.4888e-05	5639
bin	3.49592e-05	5836
bin	3.50304e-05	5754
bin	3.51016e-05	5870
bin	3.51728e-05	5724
bin	3.5244e-05	5787
bin	3.53152e-05	5870
bin	3.53864e-05	5867
bin	3.54576e-05	5641
bin	3.55288e-05	5876
bin	3.56e-05	2684985
statistic Torus3d_bub.timer 	"Life Times"
field count 6291456
field mean 0.00037841784179628
field stddev 0.0002609646723793
field sum 2380.7992012763
field sqrsum 1.3294010885693
field min 1.64e-07
field max 0.001544655997598
bin	-INF	0
bin	0	46
bin	8.544e-07	327
bin	1.7088e-06	920
bin	2.5632e-06	1765
bin	3.4176e-06	2749
bin	4.272e-06	3728
bin	5.1264e-06	4765
bin	5.9808e-06	5633
bin	6.8352e-06	6724
bin	7.6896e-06	7811
bin	8.544e-06	8952
bin	9.3984e-06	10234
bin	1.02528e-05	11056
bin	1.11072e-05	11745
bin	1.19616e-05	12871
bin	1.2816e-05	13645
bin	1.36704e-05	14586
bin	1.45248e-05	15496
bin	1.53792e-05	16491
bin	1.62336e-05	17448
bin	1.7088e-05	18260
bin	1.79424e-05	19143
bin	1.87968e-05	19877
bin	1.96512e-05	20765
bin	2.05056e-05	21402
bin	2.136e-05	22475
bin	2.22144e-05	23045
bin	2.30688e-05	23243
bin	2.39232e-05	23909
bin	2.47776e-05	23852
bin	2.5632e-05	23377
bin	2.64864e-05	22512
bin	2.73408e-05	21323
bin	2.81952e-05	20194
bin	2.90496e-05	19476
bin	2.9904e-05	18597
bin	3.07584e-05	17604
bin	3.16128e-05	16709
bin	3.24672e-05	15733
bin	3.33216e-05	14854
bin	3.4176e-05	14184
bin	3.50304e-05	13648
bin	3.58848e-05	12962
bin	3.67392e-05	12570
bin	3.75936e-05	12069
bin	3.8448e-05	11747
bin	3.93024e-05	11462
bin	4.01568e-05	11156
bin	4.10112e-05	10841
bin	4.18656e-05	10852
bin	4.272e-05	10624
bin	4.35744e-05	10368
bin	4.44288e-05	10287
bin	4.52832e-05	10213
bin	4.61376e-05	10040
bin	4.6992e-05	10045
bin	4.78464e-05	9998
bin	4.87008e-05	9848
bin	4.95552e-05	9813
bin	5.04096e-05	9681
bin	5.1264e-05	9515
bin	5.21184e-05	9406
bin	5.29728e-05	9422
bin	5.38272e-05	9056
bin	5.46816e-05	8885
bin	5.5536e-05	8767
bin	5.63904e-05	8678
bin	5.72448e-05	8514
bin	5.80992e-05	8470
bin	5.89536e-05	8517
bin	5.9808e-05	8229
bin	6.06624e-05	8097
bin	6.15168e-05	8116
bin	6.23712e-05	8001
bin	6.32256e-05	7903
bin	6.408e-05	7954
bin	6.49344e-05	7836
bin	6.57888e-05	7595
bin	6.66432e-05	7636
bin	6.74976e-05	7498
bin	6.8352e-05	7504
bin	6.92064e-05	7680
bin	7.00608e-05	7597
bin	7.09152e-05	7554
bin	7.17696e-05	7548
bin	7.2624e-05	7561
bin	7.34784e-05	7505
bin	7.43328e-05	7683
bin	7.51872e-05	7620
bin	7.60416e-05	7577
bin	7.6896e-05	7464
bin	7.77504e-05	7532
bin	7.86048e-05	7439
bin	7.94592e-05	7388
bin	8.03136e-05	7320
bin	8.1168e-05	7335
bin	8.20224e-05	7228
bin	8.28768e-05	7328
bin	8.37312e-05	7233
bin	8.45856e-05	7136
bin	8.544e-05	7177
bin	8.62944e-05	7246
bin	8.71488e-05	7117
bin	8.80032e-05	7022
bin	8.88576e-05	7254
bin	8.9712e-05	6959
bin	9.05664e-05	7110
bin	9.14208e-05	7093
bin	9.22752e-05	6940
bin	9.31296e-05	6976
bin	9.3984e-05	7010
bin	9.48384e-05	6990
bin	9.56928e-05	7108
bin	9.65472e-05	6928
bin	9.74016e-05	7033
bin	9.8256e-05	7033
bin	9.91104e-05	6924
bin	9.99648e-05	6897
bin	0.0001008192	6891
bin	0.0001016736	6996
bin	0.000102528	6735
bin	0.0001033824	6970
bin	0.0001042368	6802
bin	0.0001050912	6930
bin	0.0001059456	6839
bin	0.0001068	6748
bin	0.0001076544	6685
bin	0.0001085088	6686
bin	0.0001093632	6637
bin	0.0001102176	6649
bin	0.000111072	6693
bin	0.0001119264	6778
bin	0.0001127808	6778
bin	0.0001136352	6821
bin	0.0001144896	6913
bin	0.000115344	6675
bin	0.0001161984	6616
bin	0.0001170528	6745
bin	0.0001179072	6744
bin	0.0001187616	6764
bin	0.000119616	6724
bin	0.0001204704	6752
bin	0.0001213248	6734
bin	0.0001221792	6914
bin	0.0001230336	6708
bin	0.000123888	6738
bin	0.0001247424	6854
bin	0.0001255968	6596
bin	0.0001264512	6731
bin	0.0001273056	6788
bin	0.00012816	6838
bin	0.0001290144	6754
bin	0.0001298688	6677
bin	0.0001307232	6856
bin	0.0001315776	6871
bin	0.000132432	6783
bin	0.0001332864	6806
bin	0.0001341408	6844
bin	0.0001349952	6771
bin	0.0001358496	6620
bin	0.000136704	6696
bin	0.0001375584	6797
bin	0.0001384128	6791
bin	0.0001392672	6671
bin	0.0001401216	6834
bin	0.000140976	6532
bin	0.0001418304	6776
bin	0.0001426848	6653
bin	0.0001435392	6696
bin	0.0001443936	6705
bin	0.000145248	6609
bin	0.0001461024	6623
bin	0.0001469568	6605
bin	0.0001478112	6674
bin	0.0001486656	6777
bin	0.00014952	6748
bin	0.0001503744	6807
bin	0.0001512288	6713
bin	0.0001520832	6618
bin	0.0001529376	6600
bin	0.000153792	6732
bin	0.0001546464	6574
bin	0.0001555008	6738
bin	0.0001563552	6793
bin	0.0001572096	6761
bin	0.000158064	6692
bin	0.0001589184	6698
bin	0.0001597728	6742
bin	0.0001606272	6666
bin	0.0001614816	6775
bin	0.000162336	6707
bin	0.0001631904	6708
bin	0.0001640448	6554
bin	0.0001648992	6778
bin	0.0001657536	6705
bin	0.000166608	6581
bin	0.0001674624	6657
bin	0.0001683168	6515
bin	0.0001691712	6545
bin	0.0001700256	6553
bin	0.00017088	6511
bin	0.0001717344	6436
bin	0.0001725888	6450
bin	0.0001734432	6439
bin	0.0001742976	6429
bin	0.000175152	6418
bin	0.0001760064	6355
bin	0.0001768608	6537
bin	0.0001777152	6507
bin	0.0001785696	6476
bin	0.000179424	6432
bin	0.0001802784	6423
bin	0.0001811328	6542
bin	0.0001819872	6509
bin	0.0001828416	6460
bin	0.000183696	6549
bin	0.0001845504	6467
bin	0.0001854048	6387
bin	0.0001862592	6483
bin	0.0001871136	6503
bin	0.000187968	6467
bin	0.0001888224	6446
bin	0.0001896768	6419
bin	0.0001905312	6331
bin	0.0001913856	6527
bin	0.00019224	6416
bin	0.0001930944	6440
bin	0.0001939488	6534
bin	0.0001948032	6359
bin	0.0001956576	6586
bin	0.000196512	6486
bin	0.0001973664	6387
bin	0.0001982208	6365
bin	0.0001990752	6466
bin	0.0001999296	6302
bin	0.000200784	6468
bin	0.0002016384	6438
bin	0.0002024928	6351
bin	0.0002033472	6345
bin	0.0002042016	6505
bin	0.000205056	6345
bin	0.0002059104	6282
bin	0.0002067648	6330
bin	0.0002076192	6513
bin	0.0002084736	6397
bin	0.000209328	6353
bin	0.0002101824	6434
bin	0.0002110368	6464
bin	0.0002118912	6472
bin	0.0002127456	6274
bin	0.0002136	6518
bin	0.0002144544	6449
bin	0.0002153088	6459
bin	0.0002161632	6407
bin	0.0002170176	6429
bin	0.000217872	6355
bin	0.0002187264	6315
bin	0.0002195808	6369
bin	0.0002204352	6427
bin	0.0002212896	6272
bin	0.000222144	6375
bin	0.0002229984	6404
bin	0.0002238528	6435
bin	0.0002247072	6387
bin	0.0002255616	6405
bin	0.000226416	6432
bin	0.0002272704	6402
bin	0.0002281248	6377
bin	0.0002289792	6488
bin	0.0002298336	6345
bin	0.000230688	6422
bin	0.0002315424	6452
bin	0.0002323968	6359
bin	0.0002332512	6422
bin	0.0002341056	6470
bin	0.00023496	6295
bin	0.0002358144	6257
bin	0.0002366688	6334
bin	0.0002375232	6346
bin	0.0002383776	6373
bin	0.000239232	6253
bin	0.0002400864	6403
bin	0.0002409408	6247
bin	0.0002417952	6326
bin	0.0002426496	6445
bin	0.000243504	6279
bin	0.0002443584	6419
bin	0.0002452128	6405
bin	0.0002460672	6339
bin	0.0002469216	6257
bin	0.000247776	6259
bin	0.0002486304	6207
bin	0.0002494848	6207
bin	0.0002503392	6357
bin	0.0002511936	6217
bin	0.000252048	6185
bin	0.0002529024	6293
bin	0.0002537568	6192
bin	0.0002546112	6082
bin	0.0002554656	6103
bin	0.00025632	6167
bin	0.0002571744	6098
bin	0.0002580288	6185
bin	0.0002588832	6225
bin	0.0002597376	6121
bin	0.000260592	6092
bin	0.0002614464	6078
bin	0.0002623008	6087
bin	0.0002631552	6141
bin	0.0002640096	6081
bin	0.000264864	6039
bin	0.0002657184	6197
bin	0.0002665728	6036
bin	0.0002674272	6043
bin	0.0002682816	6077
bin	0.000269136	5978
bin	0.0002699904	6011
bin	0.0002708448	6046
bin	0.0002716992	6100
bin	0.0002725536	6007
bin	0.000273408	6039
bin	0.0002742624	6132
bin	0.0002751168	6072
bin	0.0002759712	6163
bin	0.0002768256	6149
bin	0.00027768	5996
bin	0.0002785344	6239
bin	0.0002793888	6042
bin	0.0002802432	5904
bin	0.0002810976	6100
bin	0.000281952	6142
bin	0.0002828064	6140
bin	0.0002836608	6060
bin	0.0002845152	6046
bin	0.0002853696	6184
bin	0.000286224	5939
bin	0.0002870784	5911
bin	0.0002879328	5995
bin	0.0002887872	5993
bin	0.0002896416	5991
bin	0.000290496	5911
bin	0.0002913504	5988
bin	0.0002922048	5937
bin	0.0002930592	6088
bin	0.0002939136	6038
bin	0.000294768	6047
bin	0.0002956224	6019
bin	0.0002964768	6022
bin	0.0002973312	6135
bin	0.0002981856	6127
bin	0.00029904	5964
bin	0.0002998944	6099
bin	0.0003007488	6014
bin	0.0003016032	6167
bin	0.0003024576	6007
bin	0.000303312	5996
bin	0.0003041664	6036
bin	0.0003050208	6113
bin	0.0003058752	6107
bin	0.0003067296	6101
bin	0.000307584	6008
bin	0.0003084384	5856
bin	0.0003092928	6111
bin	0.0003101472	5872
bin	0.0003110016	5912
bin	0.000311856	5982
bin	0.0003127104	5899
bin	0.0003135648	5967
bin	0.0003144192	6036
bin	0.0003152736	5984
bin	0.000316128	6086
bin	0.0003169824	6101
bin	0.0003178368	5997
bin	0.0003186912	6065
bin	0.0003195456	6121
bin	0.0003204	5997
bin	0.0003212544	6039
bin	0.0003221088	6034
bin	0.0003229632	5982
bin	0.0003238176	6053
bin	0.000324672	6048
bin	0.0003255264	6061
bin	0.0003263808	6033
bin	0.0003272352	5949
bin	0.0003280896	5995
bin	0.000328944	6010
bin	0.0003297984	6086
bin	0.0003306528	5919
bin	0.0003315072	6053
bin	0.0003323616	6295
bin	0.000333216	6168
bin	0.0003340704	6128
bin	0.0003349248	6111
bin	0.0003357792	6083
bin	0.0003366336	5923
bin	0.000337488	6012
bin	0.0003383424	6179
bin	0.0003391968	6250
bin	0.0003400512	6071
bin	0.0003409056	6012
bin	0.00034176	6042
bin	0.0003426144	6077
bin	0.0003434688	6001
bin	0.0003443232	6135
bin	0.0003451776	5951
bin	0.000346032	6002
bin	0.0003468864	6043
bin	0.0003477408	6111
bin	0.0003485952	5994
bin	0.0003494496	6078
bin	0.000350304	6099
bin	0.0003511584	6021
bin	0.0003520128	6008
bin	0.0003528672	5932
bin	0.0003537216	6049
bin	0.000354576	6053
bin	0.0003554304	6081
bin	0.0003562848	5886
bin	0.0003571392	5986
bin	0.0003579936	6072
bin	0.000358848	6114
bin	0.0003597024	6051
bin	0.0003605568	6039
bin	0.0003614112	6041
bin	0.0003622656	6068
bin	0.00036312	5933
bin	0.0003639744	5993
bin	0.0003648288	6041
bin	0.0003656832	5999
bin	0.0003665376	6048
bin	0.000367392	6048
bin	0.0003682464	5985
bin	0.0003691008	5966
bin	0.0003699552	6077
bin	0.0003708096	5970
bin	0.000371664	5958
bin	0.0003725184	5924
bin	0.0003733728	5957
bin	0.0003742272	6029
bin	0.0003750816	6008
bin	0.000375936	6129
bin	0.0003767904	5975
bin	0.0003776448	6159
bin	0.0003784992	6156
bin	0.0003793536	6047
bin	0.000380208	6128
bin	0.0003810624	5946
bin	0.0003819168	5935
bin	0.0003827712	6065
bin	0.0003836256	5905
bin	0.00038448	5989
bin	0.0003853344	5930
bin	0.0003861888	5817
bin	0.0003870432	5829
bin	0.0003878976	5887
bin	0.000388752	5855
bin	0.0003896064	5765
bin	0.0003904608	5760
bin	0.0003913152	5838
bin	0.0003921696	5962
bin	0.000393024	5843
bin	0.0003938784	5832
bin	0.0003947328	5865
bin	0.0003955872	5850
bin	0.0003964416	5843
bin	0.000397296	5752
bin	0.0003981504	5873
bin	0.0003990048	5946
bin	0.0003998592	5852
bin	0.0004007136	5914
bin	0.000401568	5865
bin	0.0004024224	5901
bin	0.0004032768	5883
bin	0.0004041312	5924
bin	0.0004049856	5824
bin	0.00040584	5998
bin	0.0004066944	5924
bin	0.0004075488	5799
bin	0.0004084032	5815
bin	0.0004092576	5781
bin	0.000410112	5988
bin	0.0004109664	5902
bin	0.0004118208	5877
bin	0.0004126752	5834
bin	0.0004135296	5809
bin	0.000414384	5904
bin	0.0004152384	5889
bin	0.0004160928	5854
bin	0.0004169472	5858
bin	0.0004178016	5780
bin	0.000418656	5782
bin	0.0004195104	5945
bin	0.0004203648	5739
bin	0.0004212192	5925
bin	0.0004220736	5808
bin	0.000422928	5865
bin	0.0004237824	5907
bin	0.0004246368	5784
bin	0.0004254912	5708
bin	0.0004263456	5758
bin	0.0004272	2661042
