version 2
run Uniform-39-20120709-17:07:56-24754
attr alg 3
attr buf 8
attr configname Uniform
attr datetime 20120709-17:07:56
attr delta 1
attr experiment Uniform
attr ext true
attr inifile altro.ini
attr iterationvars "$buf=8, $ext=true, $ofedge=2, $delta=1, $alg=3"
attr iterationvars2 "$buf=8, $ext=true, $ofedge=2, $delta=1, $alg=3, $repetition=0"
attr measurement "$buf=8, $ext=true, $ofedge=2, $delta=1, $alg=3"
attr network Torus3d_bub
attr ofedge 2
attr processid 24754
attr repetition 0
attr replication #0
attr resultdir altro-results
attr runnumber 39
attr seedset 39

scalar . 	alg 	3
scalar . 	buf 	8
scalar . 	delta 	1
scalar . 	ofedge 	2
scalar Torus3d_bub.timer 	#endTime 	0.001781400330579
scalar Torus3d_bub.timer 	#totalHops 	87599508
scalar Torus3d_bub.timer 	#totalPacks 	6291456
scalar Torus3d_bub.timer 	#totalDerouted 	2186120
scalar Torus3d_bub.timer 	#totalOutFlanked 	1356753
scalar Torus3d_bub.timer 	#totalCQRed 	829367
scalar Torus3d_bub.timer 	#LB 	0.000786432
scalar Torus3d_bub.timer 	#ratio 	0.44146842599069
statistic Torus3d_bub.timer 	"Hop Times"
field count 6289392
field mean 3.7789881723707e-05
field stddev 3.6703182084568e-05
field sum 237.67537979403
field sqrsum 0.017454311380382
field min 4.03809518e-07
field max 0.001141898333293
bin	-INF	0
bin	0	0
bin	7.12e-08	0
bin	1.424e-07	0
bin	2.136e-07	0
bin	2.848e-07	0
bin	3.56e-07	20
bin	4.272e-07	597
bin	4.984e-07	1408
bin	5.696e-07	2240
bin	6.408e-07	3456
bin	7.12e-07	4587
bin	7.832e-07	5962
bin	8.544e-07	7244
bin	9.256e-07	8479
bin	9.968e-07	9969
bin	1.068e-06	11393
bin	1.1392e-06	13088
bin	1.2104e-06	14907
bin	1.2816e-06	16987
bin	1.3528e-06	19064
bin	1.424e-06	21063
bin	1.4952e-06	23480
bin	1.5664e-06	25788
bin	1.6376e-06	27464
bin	1.7088e-06	29098
bin	1.78e-06	29715
bin	1.8512e-06	30104
bin	1.9224e-06	29792
bin	1.9936e-06	29645
bin	2.0648e-06	28380
bin	2.136e-06	27372
bin	2.2072e-06	26133
bin	2.2784e-06	25087
bin	2.3496e-06	23743
bin	2.4208e-06	22714
bin	2.492e-06	21299
bin	2.5632e-06	20322
bin	2.6344e-06	18955
bin	2.7056e-06	17993
bin	2.7768e-06	17023
bin	2.848e-06	16515
bin	2.9192e-06	15609
bin	2.9904e-06	14905
bin	3.0616e-06	14264
bin	3.1328e-06	13854
bin	3.204e-06	13002
bin	3.2752e-06	12628
bin	3.3464e-06	11853
bin	3.4176e-06	11558
bin	3.4888e-06	11145
bin	3.56e-06	10829
bin	3.6312e-06	10518
bin	3.7024e-06	10086
bin	3.7736e-06	9931
bin	3.8448e-06	9687
bin	3.916e-06	9394
bin	3.9872e-06	8953
bin	4.0584e-06	8939
bin	4.1296e-06	8725
bin	4.2008e-06	8754
bin	4.272e-06	8499
bin	4.3432e-06	8297
bin	4.4144e-06	8008
bin	4.4856e-06	8100
bin	4.5568e-06	7930
bin	4.628e-06	7827
bin	4.6992e-06	7726
bin	4.7704e-06	7650
bin	4.8416e-06	7600
bin	4.9128e-06	7499
bin	4.984e-06	7446
bin	5.0552e-06	7342
bin	5.1264e-06	7245
bin	5.1976e-06	7193
bin	5.2688e-06	7129
bin	5.34e-06	7057
bin	5.4112e-06	7046
bin	5.4824e-06	6952
bin	5.5536e-06	7051
bin	5.6248e-06	6849
bin	5.696e-06	6794
bin	5.7672e-06	6786
bin	5.8384e-06	6785
bin	5.9096e-06	6839
bin	5.9808e-06	6593
bin	6.052e-06	6717
bin	6.1232e-06	6521
bin	6.1944e-06	6623
bin	6.2656e-06	6520
bin	6.3368e-06	6607
bin	6.408e-06	6538
bin	6.4792e-06	6402
bin	6.5504e-06	6426
bin	6.6216e-06	6427
bin	6.6928e-06	6339
bin	6.764e-06	6270
bin	6.8352e-06	6360
bin	6.9064e-06	6177
bin	6.9776e-06	6265
bin	7.0488e-06	6323
bin	7.12e-06	6172
bin	7.1912e-06	6204
bin	7.2624e-06	6195
bin	7.3336e-06	6116
bin	7.4048e-06	6122
bin	7.476e-06	6152
bin	7.5472e-06	6098
bin	7.6184e-06	6049
bin	7.6896e-06	6127
bin	7.7608e-06	6168
bin	7.832e-06	6059
bin	7.9032e-06	6090
bin	7.9744e-06	6083
bin	8.0456e-06	6077
bin	8.1168e-06	6022
bin	8.188e-06	6148
bin	8.2592e-06	6072
bin	8.3304e-06	6175
bin	8.4016e-06	6034
bin	8.4728e-06	6049
bin	8.544e-06	6030
bin	8.6152e-06	6099
bin	8.6864e-06	6101
bin	8.7576e-06	6051
bin	8.8288e-06	6158
bin	8.9e-06	6099
bin	8.9712e-06	6254
bin	9.0424e-06	6045
bin	9.1136e-06	6021
bin	9.1848e-06	6053
bin	9.256e-06	6001
bin	9.3272e-06	6017
bin	9.3984e-06	6094
bin	9.4696e-06	6074
bin	9.5408e-06	5939
bin	9.612e-06	5978
bin	9.6832e-06	6073
bin	9.7544e-06	6078
bin	9.8256e-06	6060
bin	9.8968e-06	6205
bin	9.968e-06	5971
bin	1.00392e-05	6158
bin	1.01104e-05	6049
bin	1.01816e-05	5995
bin	1.02528e-05	6064
bin	1.0324e-05	5983
bin	1.03952e-05	6046
bin	1.04664e-05	6220
bin	1.05376e-05	6069
bin	1.06088e-05	6141
bin	1.068e-05	6097
bin	1.07512e-05	6067
bin	1.08224e-05	5991
bin	1.08936e-05	6048
bin	1.09648e-05	6136
bin	1.1036e-05	6099
bin	1.11072e-05	6094
bin	1.11784e-05	6046
bin	1.12496e-05	5981
bin	1.13208e-05	6203
bin	1.1392e-05	5925
bin	1.14632e-05	6018
bin	1.15344e-05	6184
bin	1.16056e-05	5932
bin	1.16768e-05	5942
bin	1.1748e-05	6027
bin	1.18192e-05	5970
bin	1.18904e-05	6127
bin	1.19616e-05	5999
bin	1.20328e-05	6000
bin	1.2104e-05	6168
bin	1.21752e-05	6047
bin	1.22464e-05	5939
bin	1.23176e-05	5889
bin	1.23888e-05	6172
bin	1.246e-05	5926
bin	1.25312e-05	5969
bin	1.26024e-05	5949
bin	1.26736e-05	5980
bin	1.27448e-05	5983
bin	1.2816e-05	5918
bin	1.28872e-05	5968
bin	1.29584e-05	5915
bin	1.30296e-05	5920
bin	1.31008e-05	6104
bin	1.3172e-05	5921
bin	1.32432e-05	5965
bin	1.33144e-05	6077
bin	1.33856e-05	5991
bin	1.34568e-05	5994
bin	1.3528e-05	6009
bin	1.35992e-05	5951
bin	1.36704e-05	5985
bin	1.37416e-05	6040
bin	1.38128e-05	6154
bin	1.3884e-05	6034
bin	1.39552e-05	6093
bin	1.40264e-05	6083
bin	1.40976e-05	6023
bin	1.41688e-05	6091
bin	1.424e-05	5855
bin	1.43112e-05	5987
bin	1.43824e-05	5971
bin	1.44536e-05	6012
bin	1.45248e-05	6114
bin	1.4596e-05	6079
bin	1.46672e-05	6123
bin	1.47384e-05	6077
bin	1.48096e-05	6095
bin	1.48808e-05	6153
bin	1.4952e-05	6066
bin	1.50232e-05	6198
bin	1.50944e-05	5989
bin	1.51656e-05	5964
bin	1.52368e-05	6110
bin	1.5308e-05	6071
bin	1.53792e-05	6100
bin	1.54504e-05	6096
bin	1.55216e-05	6066
bin	1.55928e-05	6115
bin	1.5664e-05	6073
bin	1.57352e-05	6002
bin	1.58064e-05	5960
bin	1.58776e-05	5913
bin	1.59488e-05	5882
bin	1.602e-05	6000
bin	1.60912e-05	5979
bin	1.61624e-05	5981
bin	1.62336e-05	5858
bin	1.63048e-05	5815
bin	1.6376e-05	5858
bin	1.64472e-05	5952
bin	1.65184e-05	5890
bin	1.65896e-05	5874
bin	1.66608e-05	5943
bin	1.6732e-05	5965
bin	1.68032e-05	5951
bin	1.68744e-05	5993
bin	1.69456e-05	6005
bin	1.70168e-05	5840
bin	1.7088e-05	5904
bin	1.71592e-05	6103
bin	1.72304e-05	6061
bin	1.73016e-05	5906
bin	1.73728e-05	5873
bin	1.7444e-05	5894
bin	1.75152e-05	5995
bin	1.75864e-05	5886
bin	1.76576e-05	5978
bin	1.77288e-05	5878
bin	1.78e-05	6024
bin	1.78712e-05	5833
bin	1.79424e-05	5834
bin	1.80136e-05	5883
bin	1.80848e-05	5904
bin	1.8156e-05	5911
bin	1.82272e-05	6000
bin	1.82984e-05	5876
bin	1.83696e-05	5770
bin	1.84408e-05	6009
bin	1.8512e-05	5827
bin	1.85832e-05	5977
bin	1.86544e-05	5863
bin	1.87256e-05	5825
bin	1.87968e-05	5775
bin	1.8868e-05	5830
bin	1.89392e-05	5910
bin	1.90104e-05	5937
bin	1.90816e-05	5850
bin	1.91528e-05	5930
bin	1.9224e-05	6049
bin	1.92952e-05	6006
bin	1.93664e-05	6062
bin	1.94376e-05	5997
bin	1.95088e-05	5919
bin	1.958e-05	5860
bin	1.96512e-05	6045
bin	1.97224e-05	5991
bin	1.97936e-05	6020
bin	1.98648e-05	5944
bin	1.9936e-05	5976
bin	2.00072e-05	6070
bin	2.00784e-05	5985
bin	2.01496e-05	5971
bin	2.02208e-05	5942
bin	2.0292e-05	5950
bin	2.03632e-05	5917
bin	2.04344e-05	5850
bin	2.05056e-05	5976
bin	2.05768e-05	5875
bin	2.0648e-05	6063
bin	2.07192e-05	5922
bin	2.07904e-05	6064
bin	2.08616e-05	6021
bin	2.09328e-05	5901
bin	2.1004e-05	5919
bin	2.10752e-05	5912
bin	2.11464e-05	5952
bin	2.12176e-05	5980
bin	2.12888e-05	6001
bin	2.136e-05	6011
bin	2.14312e-05	5989
bin	2.15024e-05	6038
bin	2.15736e-05	5743
bin	2.16448e-05	5969
bin	2.1716e-05	5968
bin	2.17872e-05	5862
bin	2.18584e-05	5736
bin	2.19296e-05	5945
bin	2.20008e-05	5938
bin	2.2072e-05	5947
bin	2.21432e-05	5925
bin	2.22144e-05	5886
bin	2.22856e-05	5840
bin	2.23568e-05	5987
bin	2.2428e-05	5743
bin	2.24992e-05	5909
bin	2.25704e-05	5951
bin	2.26416e-05	5912
bin	2.27128e-05	5953
bin	2.2784e-05	5774
bin	2.28552e-05	5872
bin	2.29264e-05	5945
bin	2.29976e-05	5817
bin	2.30688e-05	5710
bin	2.314e-05	5777
bin	2.32112e-05	5858
bin	2.32824e-05	5742
bin	2.33536e-05	5790
bin	2.34248e-05	5875
bin	2.3496e-05	5727
bin	2.35672e-05	5700
bin	2.36384e-05	5847
bin	2.37096e-05	5762
bin	2.37808e-05	5806
bin	2.3852e-05	5790
bin	2.39232e-05	5791
bin	2.39944e-05	5755
bin	2.40656e-05	5772
bin	2.41368e-05	5730
bin	2.4208e-05	5754
bin	2.42792e-05	5672
bin	2.43504e-05	5898
bin	2.44216e-05	5860
bin	2.44928e-05	5823
bin	2.4564e-05	5794
bin	2.46352e-05	5830
bin	2.47064e-05	5775
bin	2.47776e-05	5887
bin	2.48488e-05	5941
bin	2.492e-05	5719
bin	2.49912e-05	5779
bin	2.50624e-05	5870
bin	2.51336e-05	5808
bin	2.52048e-05	5934
bin	2.5276e-05	5714
bin	2.53472e-05	5771
bin	2.54184e-05	5719
bin	2.54896e-05	5783
bin	2.55608e-05	5693
bin	2.5632e-05	5654
bin	2.57032e-05	5709
bin	2.57744e-05	5774
bin	2.58456e-05	5733
bin	2.59168e-05	5741
bin	2.5988e-05	5724
bin	2.60592e-05	5830
bin	2.61304e-05	5660
bin	2.62016e-05	5734
bin	2.62728e-05	5727
bin	2.6344e-05	5718
bin	2.64152e-05	5779
bin	2.64864e-05	5709
bin	2.65576e-05	5835
bin	2.66288e-05	5647
bin	2.67e-05	5758
bin	2.67712e-05	5684
bin	2.68424e-05	5761
bin	2.69136e-05	5875
bin	2.69848e-05	5720
bin	2.7056e-05	5758
bin	2.71272e-05	5577
bin	2.71984e-05	5713
bin	2.72696e-05	5676
bin	2.73408e-05	5723
bin	2.7412e-05	5663
bin	2.74832e-05	5746
bin	2.75544e-05	5727
bin	2.76256e-05	5819
bin	2.76968e-05	5623
bin	2.7768e-05	5667
bin	2.78392e-05	5641
bin	2.79104e-05	5764
bin	2.79816e-05	5629
bin	2.80528e-05	5662
bin	2.8124e-05	5594
bin	2.81952e-05	5581
bin	2.82664e-05	5489
bin	2.83376e-05	5780
bin	2.84088e-05	5652
bin	2.848e-05	5645
bin	2.85512e-05	5530
bin	2.86224e-05	5635
bin	2.86936e-05	5580
bin	2.87648e-05	5754
bin	2.8836e-05	5617
bin	2.89072e-05	5459
bin	2.89784e-05	5489
bin	2.90496e-05	5610
bin	2.91208e-05	5571
bin	2.9192e-05	5554
bin	2.92632e-05	5577
bin	2.93344e-05	5763
bin	2.94056e-05	5624
bin	2.94768e-05	5672
bin	2.9548e-05	5597
bin	2.96192e-05	5572
bin	2.96904e-05	5658
bin	2.97616e-05	5723
bin	2.98328e-05	5700
bin	2.9904e-05	5591
bin	2.99752e-05	5645
bin	3.00464e-05	5699
bin	3.01176e-05	5542
bin	3.01888e-05	5637
bin	3.026e-05	5554
bin	3.03312e-05	5578
bin	3.04024e-05	5577
bin	3.04736e-05	5625
bin	3.05448e-05	5596
bin	3.0616e-05	5529
bin	3.06872e-05	5478
bin	3.07584e-05	5443
bin	3.08296e-05	5276
bin	3.09008e-05	5347
bin	3.0972e-05	5363
bin	3.10432e-05	5501
bin	3.11144e-05	5425
bin	3.11856e-05	5480
bin	3.12568e-05	5381
bin	3.1328e-05	5541
bin	3.13992e-05	5384
bin	3.14704e-05	5501
bin	3.15416e-05	5540
bin	3.16128e-05	5499
bin	3.1684e-05	5571
bin	3.17552e-05	5560
bin	3.18264e-05	5511
bin	3.18976e-05	5419
bin	3.19688e-05	5623
bin	3.204e-05	5522
bin	3.21112e-05	5532
bin	3.21824e-05	5517
bin	3.22536e-05	5667
bin	3.23248e-05	5543
bin	3.2396e-05	5577
bin	3.24672e-05	5573
bin	3.25384e-05	5600
bin	3.26096e-05	5635
bin	3.26808e-05	5621
bin	3.2752e-05	5610
bin	3.28232e-05	5564
bin	3.28944e-05	5622
bin	3.29656e-05	5534
bin	3.30368e-05	5655
bin	3.3108e-05	5512
bin	3.31792e-05	5514
bin	3.32504e-05	5622
bin	3.33216e-05	5628
bin	3.33928e-05	5579
bin	3.3464e-05	5655
bin	3.35352e-05	5558
bin	3.36064e-05	5482
bin	3.36776e-05	5490
bin	3.37488e-05	5403
bin	3.382e-05	5461
bin	3.38912e-05	5500
bin	3.39624e-05	5402
bin	3.40336e-05	5475
bin	3.41048e-05	5517
bin	3.4176e-05	5583
bin	3.42472e-05	5558
bin	3.43184e-05	5552
bin	3.43896e-05	5487
bin	3.44608e-05	5571
bin	3.4532e-05	5568
bin	3.46032e-05	5535
bin	3.46744e-05	5557
bin	3.47456e-05	5504
bin	3.48168e-05	5444
bin	3.4888e-05	5655
bin	3.49592e-05	5597
bin	3.50304e-05	5510
bin	3.51016e-05	5490
bin	3.51728e-05	5437
bin	3.5244e-05	5298
bin	3.53152e-05	5502
bin	3.53864e-05	5436
bin	3.54576e-05	5431
bin	3.55288e-05	5440
bin	3.56e-05	2828228
statistic Torus3d_bub.timer 	"Life Times"
field count 6291456
field mean 0.00046158818851305
field stddev 0.00031727003305129
field sum 2904.0617781496
field sqrsum 1.9737801988617
field min 2.06666513e-07
field max 0.001638367999997
bin	-INF	0
bin	0	25
bin	8.544e-07	177
bin	1.7088e-06	652
bin	2.5632e-06	1395
bin	3.4176e-06	2143
bin	4.272e-06	3039
bin	5.1264e-06	3857
bin	5.9808e-06	4762
bin	6.8352e-06	5726
bin	7.6896e-06	6949
bin	8.544e-06	8129
bin	9.3984e-06	9164
bin	1.02528e-05	10293
bin	1.11072e-05	11013
bin	1.19616e-05	12196
bin	1.2816e-05	12711
bin	1.36704e-05	13793
bin	1.45248e-05	14796
bin	1.53792e-05	15659
bin	1.62336e-05	16693
bin	1.7088e-05	17568
bin	1.79424e-05	18610
bin	1.87968e-05	19528
bin	1.96512e-05	20545
bin	2.05056e-05	21629
bin	2.136e-05	22830
bin	2.22144e-05	23800
bin	2.30688e-05	24831
bin	2.39232e-05	25686
bin	2.47776e-05	26255
bin	2.5632e-05	26360
bin	2.64864e-05	26049
bin	2.73408e-05	24906
bin	2.81952e-05	24039
bin	2.90496e-05	22798
bin	2.9904e-05	21421
bin	3.07584e-05	20201
bin	3.16128e-05	18952
bin	3.24672e-05	17587
bin	3.33216e-05	16069
bin	3.4176e-05	14913
bin	3.50304e-05	13763
bin	3.58848e-05	12960
bin	3.67392e-05	12157
bin	3.75936e-05	11471
bin	3.8448e-05	10874
bin	3.93024e-05	10615
bin	4.01568e-05	10191
bin	4.10112e-05	9963
bin	4.18656e-05	9650
bin	4.272e-05	9408
bin	4.35744e-05	9355
bin	4.44288e-05	9341
bin	4.52832e-05	9036
bin	4.61376e-05	9308
bin	4.6992e-05	9246
bin	4.78464e-05	9000
bin	4.87008e-05	9005
bin	4.95552e-05	9000
bin	5.04096e-05	8797
bin	5.1264e-05	8488
bin	5.21184e-05	8377
bin	5.29728e-05	8287
bin	5.38272e-05	7856
bin	5.46816e-05	7748
bin	5.5536e-05	7413
bin	5.63904e-05	7088
bin	5.72448e-05	6944
bin	5.80992e-05	6858
bin	5.89536e-05	6698
bin	5.9808e-05	6437
bin	6.06624e-05	6278
bin	6.15168e-05	6275
bin	6.23712e-05	6152
bin	6.32256e-05	6044
bin	6.408e-05	6099
bin	6.49344e-05	6064
bin	6.57888e-05	5895
bin	6.66432e-05	5727
bin	6.74976e-05	5749
bin	6.8352e-05	5793
bin	6.92064e-05	5649
bin	7.00608e-05	5792
bin	7.09152e-05	5678
bin	7.17696e-05	5673
bin	7.2624e-05	5699
bin	7.34784e-05	5830
bin	7.43328e-05	5753
bin	7.51872e-05	5626
bin	7.60416e-05	5699
bin	7.6896e-05	5798
bin	7.77504e-05	5748
bin	7.86048e-05	5684
bin	7.94592e-05	5670
bin	8.03136e-05	5567
bin	8.1168e-05	5606
bin	8.20224e-05	5542
bin	8.28768e-05	5583
bin	8.37312e-05	5451
bin	8.45856e-05	5444
bin	8.544e-05	5272
bin	8.62944e-05	5339
bin	8.71488e-05	5301
bin	8.80032e-05	5286
bin	8.88576e-05	5317
bin	8.9712e-05	5322
bin	9.05664e-05	5126
bin	9.14208e-05	5266
bin	9.22752e-05	5262
bin	9.31296e-05	5152
bin	9.3984e-05	5184
bin	9.48384e-05	5324
bin	9.56928e-05	5236
bin	9.65472e-05	5194
bin	9.74016e-05	5106
bin	9.8256e-05	5125
bin	9.91104e-05	5218
bin	9.99648e-05	5163
bin	0.0001008192	5185
bin	0.0001016736	5205
bin	0.000102528	5199
bin	0.0001033824	5155
bin	0.0001042368	4959
bin	0.0001050912	5179
bin	0.0001059456	5141
bin	0.0001068	5116
bin	0.0001076544	5091
bin	0.0001085088	5117
bin	0.0001093632	5200
bin	0.0001102176	5093
bin	0.000111072	5059
bin	0.0001119264	5055
bin	0.0001127808	5180
bin	0.0001136352	5091
bin	0.0001144896	5203
bin	0.000115344	5083
bin	0.0001161984	5108
bin	0.0001170528	5081
bin	0.0001179072	4900
bin	0.0001187616	5071
bin	0.000119616	5034
bin	0.0001204704	5090
bin	0.0001213248	5100
bin	0.0001221792	5008
bin	0.0001230336	5065
bin	0.000123888	5164
bin	0.0001247424	5154
bin	0.0001255968	5063
bin	0.0001264512	5167
bin	0.0001273056	5138
bin	0.00012816	5162
bin	0.0001290144	5154
bin	0.0001298688	5158
bin	0.0001307232	5143
bin	0.0001315776	5088
bin	0.000132432	5110
bin	0.0001332864	5179
bin	0.0001341408	5072
bin	0.0001349952	5140
bin	0.0001358496	5019
bin	0.000136704	5025
bin	0.0001375584	5095
bin	0.0001384128	5068
bin	0.0001392672	5074
bin	0.0001401216	5036
bin	0.000140976	5134
bin	0.0001418304	5093
bin	0.0001426848	5116
bin	0.0001435392	4980
bin	0.0001443936	4910
bin	0.000145248	5004
bin	0.0001461024	5083
bin	0.0001469568	5207
bin	0.0001478112	5288
bin	0.0001486656	5178
bin	0.00014952	5132
bin	0.0001503744	5245
bin	0.0001512288	5114
bin	0.0001520832	5004
bin	0.0001529376	5175
bin	0.000153792	5181
bin	0.0001546464	5038
bin	0.0001555008	5198
bin	0.0001563552	5145
bin	0.0001572096	5145
bin	0.000158064	5180
bin	0.0001589184	4917
bin	0.0001597728	5091
bin	0.0001606272	5155
bin	0.0001614816	5334
bin	0.000162336	5191
bin	0.0001631904	5138
bin	0.0001640448	5159
bin	0.0001648992	5121
bin	0.0001657536	5109
bin	0.000166608	5202
bin	0.0001674624	5103
bin	0.0001683168	5169
bin	0.0001691712	5236
bin	0.0001700256	5145
bin	0.00017088	5116
bin	0.0001717344	5141
bin	0.0001725888	5202
bin	0.0001734432	5180
bin	0.0001742976	5193
bin	0.000175152	5177
bin	0.0001760064	5255
bin	0.0001768608	5203
bin	0.0001777152	5315
bin	0.0001785696	5260
bin	0.000179424	5234
bin	0.0001802784	5252
bin	0.0001811328	5324
bin	0.0001819872	5027
bin	0.0001828416	5178
bin	0.000183696	5179
bin	0.0001845504	5098
bin	0.0001854048	5175
bin	0.0001862592	5103
bin	0.0001871136	5275
bin	0.000187968	5142
bin	0.0001888224	5301
bin	0.0001896768	5142
bin	0.0001905312	5063
bin	0.0001913856	5096
bin	0.00019224	5031
bin	0.0001930944	5138
bin	0.0001939488	5221
bin	0.0001948032	5145
bin	0.0001956576	5144
bin	0.000196512	5131
bin	0.0001973664	5108
bin	0.0001982208	5128
bin	0.0001990752	5241
bin	0.0001999296	5147
bin	0.000200784	5110
bin	0.0002016384	5285
bin	0.0002024928	5097
bin	0.0002033472	5186
bin	0.0002042016	5208
bin	0.000205056	5253
bin	0.0002059104	5181
bin	0.0002067648	5076
bin	0.0002076192	5217
bin	0.0002084736	5144
bin	0.000209328	5030
bin	0.0002101824	5084
bin	0.0002110368	5067
bin	0.0002118912	5011
bin	0.0002127456	5101
bin	0.0002136	5134
bin	0.0002144544	5091
bin	0.0002153088	4993
bin	0.0002161632	5053
bin	0.0002170176	4999
bin	0.000217872	4930
bin	0.0002187264	5106
bin	0.0002195808	5121
bin	0.0002204352	5169
bin	0.0002212896	5058
bin	0.000222144	5055
bin	0.0002229984	5176
bin	0.0002238528	5180
bin	0.0002247072	5070
bin	0.0002255616	5170
bin	0.000226416	5032
bin	0.0002272704	5052
bin	0.0002281248	5030
bin	0.0002289792	5102
bin	0.0002298336	5054
bin	0.000230688	5059
bin	0.0002315424	5166
bin	0.0002323968	5054
bin	0.0002332512	4935
bin	0.0002341056	4997
bin	0.00023496	5034
bin	0.0002358144	5172
bin	0.0002366688	4899
bin	0.0002375232	5172
bin	0.0002383776	5044
bin	0.000239232	5108
bin	0.0002400864	5065
bin	0.0002409408	5102
bin	0.0002417952	4998
bin	0.0002426496	5195
bin	0.000243504	5133
bin	0.0002443584	5064
bin	0.0002452128	5061
bin	0.0002460672	4969
bin	0.0002469216	5037
bin	0.000247776	5128
bin	0.0002486304	5239
bin	0.0002494848	5123
bin	0.0002503392	5116
bin	0.0002511936	5030
bin	0.000252048	5053
bin	0.0002529024	5147
bin	0.0002537568	4995
bin	0.0002546112	5108
bin	0.0002554656	5029
bin	0.00025632	4986
bin	0.0002571744	5069
bin	0.0002580288	5081
bin	0.0002588832	5005
bin	0.0002597376	5070
bin	0.000260592	5009
bin	0.0002614464	4977
bin	0.0002623008	4940
bin	0.0002631552	5016
bin	0.0002640096	5165
bin	0.000264864	4944
bin	0.0002657184	5057
bin	0.0002665728	5014
bin	0.0002674272	5051
bin	0.0002682816	5026
bin	0.000269136	5038
bin	0.0002699904	4958
bin	0.0002708448	5064
bin	0.0002716992	4977
bin	0.0002725536	4930
bin	0.000273408	4963
bin	0.0002742624	4945
bin	0.0002751168	4969
bin	0.0002759712	4995
bin	0.0002768256	5029
bin	0.00027768	4947
bin	0.0002785344	4925
bin	0.0002793888	5082
bin	0.0002802432	4958
bin	0.0002810976	4994
bin	0.000281952	4990
bin	0.0002828064	4984
bin	0.0002836608	4983
bin	0.0002845152	5025
bin	0.0002853696	5007
bin	0.000286224	4955
bin	0.0002870784	4955
bin	0.0002879328	4942
bin	0.0002887872	5065
bin	0.0002896416	5025
bin	0.000290496	4997
bin	0.0002913504	4935
bin	0.0002922048	5040
bin	0.0002930592	4991
bin	0.0002939136	4900
bin	0.000294768	5018
bin	0.0002956224	4886
bin	0.0002964768	5052
bin	0.0002973312	5017
bin	0.0002981856	4874
bin	0.00029904	4865
bin	0.0002998944	4865
bin	0.0003007488	4957
bin	0.0003016032	4926
bin	0.0003024576	4918
bin	0.000303312	4872
bin	0.0003041664	4853
bin	0.0003050208	4928
bin	0.0003058752	4983
bin	0.0003067296	4956
bin	0.000307584	5095
bin	0.0003084384	5007
bin	0.0003092928	4953
bin	0.0003101472	4972
bin	0.0003110016	5120
bin	0.000311856	5062
bin	0.0003127104	4963
bin	0.0003135648	5015
bin	0.0003144192	5024
bin	0.0003152736	5056
bin	0.000316128	4966
bin	0.0003169824	5025
bin	0.0003178368	5022
bin	0.0003186912	4954
bin	0.0003195456	4957
bin	0.0003204	5172
bin	0.0003212544	4986
bin	0.0003221088	5096
bin	0.0003229632	5132
bin	0.0003238176	5118
bin	0.000324672	5110
bin	0.0003255264	5141
bin	0.0003263808	5083
bin	0.0003272352	5133
bin	0.0003280896	5161
bin	0.000328944	4970
bin	0.0003297984	5016
bin	0.0003306528	4982
bin	0.0003315072	5025
bin	0.0003323616	4998
bin	0.000333216	5019
bin	0.0003340704	5067
bin	0.0003349248	5086
bin	0.0003357792	5015
bin	0.0003366336	5043
bin	0.000337488	4957
bin	0.0003383424	5031
bin	0.0003391968	5013
bin	0.0003400512	4916
bin	0.0003409056	5028
bin	0.00034176	4948
bin	0.0003426144	5035
bin	0.0003434688	5084
bin	0.0003443232	5004
bin	0.0003451776	4976
bin	0.000346032	4978
bin	0.0003468864	5107
bin	0.0003477408	5011
bin	0.0003485952	5080
bin	0.0003494496	4927
bin	0.000350304	5040
bin	0.0003511584	5116
bin	0.0003520128	4891
bin	0.0003528672	5051
bin	0.0003537216	5135
bin	0.000354576	4968
bin	0.0003554304	5051
bin	0.0003562848	4893
bin	0.0003571392	5023
bin	0.0003579936	4924
bin	0.000358848	5000
bin	0.0003597024	5027
bin	0.0003605568	4881
bin	0.0003614112	5027
bin	0.0003622656	5032
bin	0.00036312	5082
bin	0.0003639744	5087
bin	0.0003648288	5027
bin	0.0003656832	4948
bin	0.0003665376	5092
bin	0.000367392	5064
bin	0.0003682464	5089
bin	0.0003691008	5109
bin	0.0003699552	4900
bin	0.0003708096	5005
bin	0.000371664	5013
bin	0.0003725184	5049
bin	0.0003733728	4992
bin	0.0003742272	5042
bin	0.0003750816	4990
bin	0.000375936	4973
bin	0.0003767904	5008
bin	0.0003776448	5081
bin	0.0003784992	5115
bin	0.0003793536	5006
bin	0.000380208	4944
bin	0.0003810624	5018
bin	0.0003819168	4957
bin	0.0003827712	5044
bin	0.0003836256	4956
bin	0.00038448	5120
bin	0.0003853344	4947
bin	0.0003861888	5137
bin	0.0003870432	5177
bin	0.0003878976	5067
bin	0.000388752	5101
bin	0.0003896064	4967
bin	0.0003904608	5137
bin	0.0003913152	4997
bin	0.0003921696	4867
bin	0.000393024	4841
bin	0.0003938784	5027
bin	0.0003947328	4949
bin	0.0003955872	5132
bin	0.0003964416	5107
bin	0.000397296	4960
bin	0.0003981504	4964
bin	0.0003990048	4987
bin	0.0003998592	5028
bin	0.0004007136	4973
bin	0.000401568	4979
bin	0.0004024224	4976
bin	0.0004032768	5062
bin	0.0004041312	4919
bin	0.0004049856	4912
bin	0.00040584	4958
bin	0.0004066944	4974
bin	0.0004075488	5040
bin	0.0004084032	5015
bin	0.0004092576	4967
bin	0.000410112	4929
bin	0.0004109664	5033
bin	0.0004118208	5125
bin	0.0004126752	4986
bin	0.0004135296	4899
bin	0.000414384	4995
bin	0.0004152384	5067
bin	0.0004160928	4947
bin	0.0004169472	5077
bin	0.0004178016	4982
bin	0.000418656	5078
bin	0.0004195104	5168
bin	0.0004203648	5010
bin	0.0004212192	5006
bin	0.0004220736	4936
bin	0.000422928	4933
bin	0.0004237824	4901
bin	0.0004246368	4997
bin	0.0004254912	4917
bin	0.0004263456	4969
bin	0.0004272	3213614
