version 2
run Uniform-32-20120709-16:56:13-24746
attr alg 0
attr buf 8
attr configname Uniform
attr datetime 20120709-16:56:13
attr delta 0.8
attr experiment Uniform
attr ext true
attr inifile altro.ini
attr iterationvars "$buf=8, $ext=true, $ofedge=2, $delta=0.8, $alg=0"
attr iterationvars2 "$buf=8, $ext=true, $ofedge=2, $delta=0.8, $alg=0, $repetition=0"
attr measurement "$buf=8, $ext=true, $ofedge=2, $delta=0.8, $alg=0"
attr network Torus3d_bub
attr ofedge 2
attr processid 24746
attr repetition 0
attr replication #0
attr resultdir altro-results
attr runnumber 32
attr seedset 32

scalar . 	alg 	0
scalar . 	buf 	8
scalar . 	delta 	0.8
scalar . 	ofedge 	2
scalar Torus3d_bub.timer 	#endTime 	0.001510092330978
scalar Torus3d_bub.timer 	#totalHops 	75694080
scalar Torus3d_bub.timer 	#totalPacks 	6291456
scalar Torus3d_bub.timer 	#totalDerouted 	0
scalar Torus3d_bub.timer 	#totalOutFlanked 	0
scalar Torus3d_bub.timer 	#totalCQRed 	0
scalar Torus3d_bub.timer 	#LB 	0.000786432
scalar Torus3d_bub.timer 	#ratio 	0.52078404999956
statistic Torus3d_bub.timer 	"Hop Times"
field count 6290256
field mean 1.9555492772393e-05
field stddev 2.2906954634926e-05
field sum 123.0090557445
field sqrsum 0.0057061792157029
field min 4.03166666e-07
field max 0.001048770333285
bin	-INF	0
bin	0	0
bin	7.12e-08	0
bin	1.424e-07	0
bin	2.136e-07	0
bin	2.848e-07	0
bin	3.56e-07	54
bin	4.272e-07	1394
bin	4.984e-07	3820
bin	5.696e-07	6668
bin	6.408e-07	10288
bin	7.12e-07	13790
bin	7.832e-07	16651
bin	8.544e-07	19493
bin	9.256e-07	22350
bin	9.968e-07	24419
bin	1.068e-06	26984
bin	1.1392e-06	29371
bin	1.2104e-06	32315
bin	1.2816e-06	35903
bin	1.3528e-06	39817
bin	1.424e-06	43964
bin	1.4952e-06	48573
bin	1.5664e-06	52395
bin	1.6376e-06	56191
bin	1.7088e-06	59208
bin	1.78e-06	61589
bin	1.8512e-06	62362
bin	1.9224e-06	62555
bin	1.9936e-06	62327
bin	2.0648e-06	61291
bin	2.136e-06	59624
bin	2.2072e-06	57475
bin	2.2784e-06	55181
bin	2.3496e-06	52981
bin	2.4208e-06	50378
bin	2.492e-06	47593
bin	2.5632e-06	45208
bin	2.6344e-06	43391
bin	2.7056e-06	40879
bin	2.7768e-06	38810
bin	2.848e-06	37020
bin	2.9192e-06	35249
bin	2.9904e-06	33253
bin	3.0616e-06	31649
bin	3.1328e-06	30662
bin	3.204e-06	29113
bin	3.2752e-06	27885
bin	3.3464e-06	26968
bin	3.4176e-06	25971
bin	3.4888e-06	25032
bin	3.56e-06	23976
bin	3.6312e-06	23242
bin	3.7024e-06	22516
bin	3.7736e-06	22105
bin	3.8448e-06	21208
bin	3.916e-06	20492
bin	3.9872e-06	19786
bin	4.0584e-06	19666
bin	4.1296e-06	19015
bin	4.2008e-06	18647
bin	4.272e-06	18193
bin	4.3432e-06	18058
bin	4.4144e-06	17502
bin	4.4856e-06	16988
bin	4.5568e-06	16789
bin	4.628e-06	16391
bin	4.6992e-06	15997
bin	4.7704e-06	15655
bin	4.8416e-06	15260
bin	4.9128e-06	15188
bin	4.984e-06	15044
bin	5.0552e-06	14585
bin	5.1264e-06	14214
bin	5.1976e-06	14089
bin	5.2688e-06	13983
bin	5.34e-06	13714
bin	5.4112e-06	13595
bin	5.4824e-06	13387
bin	5.5536e-06	13342
bin	5.6248e-06	13206
bin	5.696e-06	13031
bin	5.7672e-06	12916
bin	5.8384e-06	12806
bin	5.9096e-06	12521
bin	5.9808e-06	12632
bin	6.052e-06	12133
bin	6.1232e-06	12118
bin	6.1944e-06	11915
bin	6.2656e-06	12037
bin	6.3368e-06	11647
bin	6.408e-06	11611
bin	6.4792e-06	11705
bin	6.5504e-06	11538
bin	6.6216e-06	11414
bin	6.6928e-06	11299
bin	6.764e-06	11163
bin	6.8352e-06	11097
bin	6.9064e-06	11012
bin	6.9776e-06	10934
bin	7.0488e-06	10870
bin	7.12e-06	10814
bin	7.1912e-06	10579
bin	7.2624e-06	10596
bin	7.3336e-06	10628
bin	7.4048e-06	10482
bin	7.476e-06	10303
bin	7.5472e-06	10272
bin	7.6184e-06	10247
bin	7.6896e-06	10178
bin	7.7608e-06	10319
bin	7.832e-06	10106
bin	7.9032e-06	10040
bin	7.9744e-06	10088
bin	8.0456e-06	9793
bin	8.1168e-06	10028
bin	8.188e-06	9975
bin	8.2592e-06	9995
bin	8.3304e-06	9784
bin	8.4016e-06	9730
bin	8.4728e-06	9716
bin	8.544e-06	9694
bin	8.6152e-06	9610
bin	8.6864e-06	9613
bin	8.7576e-06	9328
bin	8.8288e-06	9295
bin	8.9e-06	9351
bin	8.9712e-06	9313
bin	9.0424e-06	9340
bin	9.1136e-06	9299
bin	9.1848e-06	9250
bin	9.256e-06	9136
bin	9.3272e-06	9182
bin	9.3984e-06	8955
bin	9.4696e-06	8903
bin	9.5408e-06	9035
bin	9.612e-06	8940
bin	9.6832e-06	8863
bin	9.7544e-06	8862
bin	9.8256e-06	8920
bin	9.8968e-06	8699
bin	9.968e-06	8917
bin	1.00392e-05	8895
bin	1.01104e-05	8863
bin	1.01816e-05	8879
bin	1.02528e-05	8749
bin	1.0324e-05	8748
bin	1.03952e-05	8760
bin	1.04664e-05	8603
bin	1.05376e-05	8587
bin	1.06088e-05	8571
bin	1.068e-05	8559
bin	1.07512e-05	8637
bin	1.08224e-05	8768
bin	1.08936e-05	8492
bin	1.09648e-05	8571
bin	1.1036e-05	8553
bin	1.11072e-05	8449
bin	1.11784e-05	8490
bin	1.12496e-05	8595
bin	1.13208e-05	8451
bin	1.1392e-05	8376
bin	1.14632e-05	8428
bin	1.15344e-05	8546
bin	1.16056e-05	8255
bin	1.16768e-05	8378
bin	1.1748e-05	8424
bin	1.18192e-05	8281
bin	1.18904e-05	8395
bin	1.19616e-05	8256
bin	1.20328e-05	8335
bin	1.2104e-05	8294
bin	1.21752e-05	8374
bin	1.22464e-05	8144
bin	1.23176e-05	8338
bin	1.23888e-05	8223
bin	1.246e-05	8078
bin	1.25312e-05	7921
bin	1.26024e-05	7992
bin	1.26736e-05	7984
bin	1.27448e-05	7996
bin	1.2816e-05	7955
bin	1.28872e-05	7903
bin	1.29584e-05	8046
bin	1.30296e-05	8082
bin	1.31008e-05	8002
bin	1.3172e-05	7948
bin	1.32432e-05	7946
bin	1.33144e-05	7960
bin	1.33856e-05	7956
bin	1.34568e-05	7871
bin	1.3528e-05	7829
bin	1.35992e-05	7891
bin	1.36704e-05	7885
bin	1.37416e-05	7836
bin	1.38128e-05	7645
bin	1.3884e-05	7811
bin	1.39552e-05	7780
bin	1.40264e-05	7814
bin	1.40976e-05	7743
bin	1.41688e-05	7800
bin	1.424e-05	7672
bin	1.43112e-05	7779
bin	1.43824e-05	7716
bin	1.44536e-05	7843
bin	1.45248e-05	7841
bin	1.4596e-05	7758
bin	1.46672e-05	7783
bin	1.47384e-05	7779
bin	1.48096e-05	7753
bin	1.48808e-05	7735
bin	1.4952e-05	7830
bin	1.50232e-05	7754
bin	1.50944e-05	7599
bin	1.51656e-05	7747
bin	1.52368e-05	7628
bin	1.5308e-05	7722
bin	1.53792e-05	7758
bin	1.54504e-05	7680
bin	1.55216e-05	7632
bin	1.55928e-05	7733
bin	1.5664e-05	7613
bin	1.57352e-05	7632
bin	1.58064e-05	7520
bin	1.58776e-05	7625
bin	1.59488e-05	7606
bin	1.602e-05	7562
bin	1.60912e-05	7565
bin	1.61624e-05	7625
bin	1.62336e-05	7444
bin	1.63048e-05	7593
bin	1.6376e-05	7505
bin	1.64472e-05	7405
bin	1.65184e-05	7575
bin	1.65896e-05	7729
bin	1.66608e-05	7463
bin	1.6732e-05	7523
bin	1.68032e-05	7479
bin	1.68744e-05	7411
bin	1.69456e-05	7534
bin	1.70168e-05	7365
bin	1.7088e-05	7501
bin	1.71592e-05	7497
bin	1.72304e-05	7509
bin	1.73016e-05	7529
bin	1.73728e-05	7456
bin	1.7444e-05	7382
bin	1.75152e-05	7550
bin	1.75864e-05	7304
bin	1.76576e-05	7392
bin	1.77288e-05	7338
bin	1.78e-05	7372
bin	1.78712e-05	7426
bin	1.79424e-05	7351
bin	1.80136e-05	7256
bin	1.80848e-05	7391
bin	1.8156e-05	7297
bin	1.82272e-05	7384
bin	1.82984e-05	7401
bin	1.83696e-05	7281
bin	1.84408e-05	7292
bin	1.8512e-05	7229
bin	1.85832e-05	7143
bin	1.86544e-05	7168
bin	1.87256e-05	7122
bin	1.87968e-05	7035
bin	1.8868e-05	7098
bin	1.89392e-05	7102
bin	1.90104e-05	7036
bin	1.90816e-05	6975
bin	1.91528e-05	6959
bin	1.9224e-05	7062
bin	1.92952e-05	7068
bin	1.93664e-05	7001
bin	1.94376e-05	6933
bin	1.95088e-05	6946
bin	1.958e-05	6973
bin	1.96512e-05	6880
bin	1.97224e-05	6947
bin	1.97936e-05	6945
bin	1.98648e-05	7049
bin	1.9936e-05	7110
bin	2.00072e-05	6835
bin	2.00784e-05	6973
bin	2.01496e-05	6894
bin	2.02208e-05	6953
bin	2.0292e-05	7088
bin	2.03632e-05	6889
bin	2.04344e-05	6924
bin	2.05056e-05	6973
bin	2.05768e-05	6870
bin	2.0648e-05	6946
bin	2.07192e-05	6958
bin	2.07904e-05	6862
bin	2.08616e-05	6737
bin	2.09328e-05	6968
bin	2.1004e-05	6968
bin	2.10752e-05	7120
bin	2.11464e-05	6921
bin	2.12176e-05	6955
bin	2.12888e-05	6800
bin	2.136e-05	6905
bin	2.14312e-05	6982
bin	2.15024e-05	6783
bin	2.15736e-05	6837
bin	2.16448e-05	6915
bin	2.1716e-05	6869
bin	2.17872e-05	6880
bin	2.18584e-05	6998
bin	2.19296e-05	6814
bin	2.20008e-05	6931
bin	2.2072e-05	7011
bin	2.21432e-05	7050
bin	2.22144e-05	6834
bin	2.22856e-05	6825
bin	2.23568e-05	6901
bin	2.2428e-05	6815
bin	2.24992e-05	6918
bin	2.25704e-05	6872
bin	2.26416e-05	6864
bin	2.27128e-05	6818
bin	2.2784e-05	6832
bin	2.28552e-05	6825
bin	2.29264e-05	6671
bin	2.29976e-05	6778
bin	2.30688e-05	6879
bin	2.314e-05	6844
bin	2.32112e-05	6790
bin	2.32824e-05	6836
bin	2.33536e-05	6953
bin	2.34248e-05	6883
bin	2.3496e-05	6892
bin	2.35672e-05	6949
bin	2.36384e-05	6802
bin	2.37096e-05	6711
bin	2.37808e-05	6730
bin	2.3852e-05	6708
bin	2.39232e-05	6802
bin	2.39944e-05	6809
bin	2.40656e-05	6759
bin	2.41368e-05	6840
bin	2.4208e-05	6931
bin	2.42792e-05	6909
bin	2.43504e-05	6849
bin	2.44216e-05	6804
bin	2.44928e-05	6641
bin	2.4564e-05	6826
bin	2.46352e-05	6707
bin	2.47064e-05	6729
bin	2.47776e-05	6770
bin	2.48488e-05	6700
bin	2.492e-05	6672
bin	2.49912e-05	6713
bin	2.50624e-05	6803
bin	2.51336e-05	6572
bin	2.52048e-05	6619
bin	2.5276e-05	6641
bin	2.53472e-05	6560
bin	2.54184e-05	6572
bin	2.54896e-05	6694
bin	2.55608e-05	6506
bin	2.5632e-05	6666
bin	2.57032e-05	6761
bin	2.57744e-05	6755
bin	2.58456e-05	6671
bin	2.59168e-05	6606
bin	2.5988e-05	6606
bin	2.60592e-05	6638
bin	2.61304e-05	6618
bin	2.62016e-05	6584
bin	2.62728e-05	6537
bin	2.6344e-05	6694
bin	2.64152e-05	6650
bin	2.64864e-05	6641
bin	2.65576e-05	6791
bin	2.66288e-05	6596
bin	2.67e-05	6524
bin	2.67712e-05	6510
bin	2.68424e-05	6581
bin	2.69136e-05	6415
bin	2.69848e-05	6572
bin	2.7056e-05	6541
bin	2.71272e-05	6421
bin	2.71984e-05	6491
bin	2.72696e-05	6532
bin	2.73408e-05	6427
bin	2.7412e-05	6442
bin	2.74832e-05	6498
bin	2.75544e-05	6267
bin	2.76256e-05	6212
bin	2.76968e-05	6441
bin	2.7768e-05	6284
bin	2.78392e-05	6459
bin	2.79104e-05	6414
bin	2.79816e-05	6207
bin	2.80528e-05	6276
bin	2.8124e-05	6340
bin	2.81952e-05	6319
bin	2.82664e-05	6326
bin	2.83376e-05	6316
bin	2.84088e-05	6317
bin	2.848e-05	6238
bin	2.85512e-05	6243
bin	2.86224e-05	6350
bin	2.86936e-05	6336
bin	2.87648e-05	6127
bin	2.8836e-05	6192
bin	2.89072e-05	6326
bin	2.89784e-05	6177
bin	2.90496e-05	6315
bin	2.91208e-05	6293
bin	2.9192e-05	6217
bin	2.92632e-05	5960
bin	2.93344e-05	5893
bin	2.94056e-05	5953
bin	2.94768e-05	5963
bin	2.9548e-05	5878
bin	2.96192e-05	6020
bin	2.96904e-05	5950
bin	2.97616e-05	5931
bin	2.98328e-05	5867
bin	2.9904e-05	5832
bin	2.99752e-05	5863
bin	3.00464e-05	5736
bin	3.01176e-05	5900
bin	3.01888e-05	5960
bin	3.026e-05	5829
bin	3.03312e-05	5975
bin	3.04024e-05	5861
bin	3.04736e-05	5895
bin	3.05448e-05	5894
bin	3.0616e-05	5738
bin	3.06872e-05	5821
bin	3.07584e-05	5823
bin	3.08296e-05	5815
bin	3.09008e-05	5782
bin	3.0972e-05	5744
bin	3.10432e-05	5692
bin	3.11144e-05	5789
bin	3.11856e-05	5769
bin	3.12568e-05	5733
bin	3.1328e-05	5748
bin	3.13992e-05	5602
bin	3.14704e-05	5544
bin	3.15416e-05	5545
bin	3.16128e-05	5528
bin	3.1684e-05	5534
bin	3.17552e-05	5565
bin	3.18264e-05	5570
bin	3.18976e-05	5493
bin	3.19688e-05	5447
bin	3.204e-05	5549
bin	3.21112e-05	5552
bin	3.21824e-05	5420
bin	3.22536e-05	5487
bin	3.23248e-05	5478
bin	3.2396e-05	5344
bin	3.24672e-05	5408
bin	3.25384e-05	5366
bin	3.26096e-05	5454
bin	3.26808e-05	5364
bin	3.2752e-05	5191
bin	3.28232e-05	5430
bin	3.28944e-05	5199
bin	3.29656e-05	5247
bin	3.30368e-05	5279
bin	3.3108e-05	5170
bin	3.31792e-05	5150
bin	3.32504e-05	5123
bin	3.33216e-05	5324
bin	3.33928e-05	5135
bin	3.3464e-05	5119
bin	3.35352e-05	5064
bin	3.36064e-05	4990
bin	3.36776e-05	5123
bin	3.37488e-05	5103
bin	3.382e-05	4940
bin	3.38912e-05	5109
bin	3.39624e-05	4913
bin	3.40336e-05	4934
bin	3.41048e-05	4831
bin	3.4176e-05	4882
bin	3.42472e-05	4976
bin	3.43184e-05	4880
bin	3.43896e-05	4879
bin	3.44608e-05	4825
bin	3.4532e-05	4852
bin	3.46032e-05	4943
bin	3.46744e-05	4847
bin	3.47456e-05	4634
bin	3.48168e-05	4677
bin	3.4888e-05	4717
bin	3.49592e-05	4724
bin	3.50304e-05	4686
bin	3.51016e-05	4654
bin	3.51728e-05	4652
bin	3.5244e-05	4642
bin	3.53152e-05	4710
bin	3.53864e-05	4676
bin	3.54576e-05	4712
bin	3.55288e-05	4617
bin	3.56e-05	1059455
statistic Torus3d_bub.timer 	"Life Times"
field count 6291456
field mean 0.00020587270232747
field stddev 0.00018302838985315
field sum 1295.2390482943
field sqrsum 0.4774142771332
field min 3.77332853e-07
field max 0.001365392333045
bin	-INF	0
bin	0	70
bin	8.544e-07	650
bin	1.7088e-06	1992
bin	2.5632e-06	3941
bin	3.4176e-06	6183
bin	4.272e-06	8534
bin	5.1264e-06	11119
bin	5.9808e-06	13538
bin	6.8352e-06	16122
bin	7.6896e-06	18616
bin	8.544e-06	21077
bin	9.3984e-06	23906
bin	1.02528e-05	25955
bin	1.11072e-05	27768
bin	1.19616e-05	29677
bin	1.2816e-05	31845
bin	1.36704e-05	33895
bin	1.45248e-05	36334
bin	1.53792e-05	37902
bin	1.62336e-05	39760
bin	1.7088e-05	42269
bin	1.79424e-05	44302
bin	1.87968e-05	46164
bin	1.96512e-05	48230
bin	2.05056e-05	50342
bin	2.136e-05	52269
bin	2.22144e-05	53576
bin	2.30688e-05	55407
bin	2.39232e-05	56352
bin	2.47776e-05	56955
bin	2.5632e-05	57020
bin	2.64864e-05	56763
bin	2.73408e-05	56185
bin	2.81952e-05	55448
bin	2.90496e-05	54429
bin	2.9904e-05	52986
bin	3.07584e-05	51354
bin	3.16128e-05	48225
bin	3.24672e-05	45084
bin	3.33216e-05	42243
bin	3.4176e-05	39441
bin	3.50304e-05	36625
bin	3.58848e-05	34156
bin	3.67392e-05	32029
bin	3.75936e-05	30127
bin	3.8448e-05	28348
bin	3.93024e-05	26662
bin	4.01568e-05	25108
bin	4.10112e-05	23258
bin	4.18656e-05	22334
bin	4.272e-05	20916
bin	4.35744e-05	20039
bin	4.44288e-05	19623
bin	4.52832e-05	18845
bin	4.61376e-05	18448
bin	4.6992e-05	17640
bin	4.78464e-05	17510
bin	4.87008e-05	16995
bin	4.95552e-05	16551
bin	5.04096e-05	16503
bin	5.1264e-05	16247
bin	5.21184e-05	16005
bin	5.29728e-05	15751
bin	5.38272e-05	15486
bin	5.46816e-05	15775
bin	5.5536e-05	15629
bin	5.63904e-05	15274
bin	5.72448e-05	15502
bin	5.80992e-05	15625
bin	5.89536e-05	15466
bin	5.9808e-05	15160
bin	6.06624e-05	15325
bin	6.15168e-05	15228
bin	6.23712e-05	15001
bin	6.32256e-05	14674
bin	6.408e-05	14515
bin	6.49344e-05	14409
bin	6.57888e-05	13996
bin	6.66432e-05	13481
bin	6.74976e-05	13247
bin	6.8352e-05	13189
bin	6.92064e-05	12934
bin	7.00608e-05	12544
bin	7.09152e-05	12198
bin	7.17696e-05	11948
bin	7.2624e-05	11910
bin	7.34784e-05	11619
bin	7.43328e-05	11414
bin	7.51872e-05	10951
bin	7.60416e-05	11090
bin	7.6896e-05	10952
bin	7.77504e-05	10650
bin	7.86048e-05	10697
bin	7.94592e-05	10784
bin	8.03136e-05	10503
bin	8.1168e-05	10682
bin	8.20224e-05	10631
bin	8.28768e-05	10443
bin	8.37312e-05	10555
bin	8.45856e-05	10411
bin	8.544e-05	10541
bin	8.62944e-05	10575
bin	8.71488e-05	10456
bin	8.80032e-05	10492
bin	8.88576e-05	10347
bin	8.9712e-05	10575
bin	9.05664e-05	10487
bin	9.14208e-05	10541
bin	9.22752e-05	10510
bin	9.31296e-05	10375
bin	9.3984e-05	10244
bin	9.48384e-05	10301
bin	9.56928e-05	10060
bin	9.65472e-05	10000
bin	9.74016e-05	9804
bin	9.8256e-05	9922
bin	9.91104e-05	9699
bin	9.99648e-05	9491
bin	0.0001008192	9459
bin	0.0001016736	9368
bin	0.000102528	9336
bin	0.0001033824	9251
bin	0.0001042368	9179
bin	0.0001050912	8979
bin	0.0001059456	9166
bin	0.0001068	8980
bin	0.0001076544	8867
bin	0.0001085088	9143
bin	0.0001093632	8924
bin	0.0001102176	8921
bin	0.000111072	8865
bin	0.0001119264	8886
bin	0.0001127808	8718
bin	0.0001136352	8816
bin	0.0001144896	8819
bin	0.000115344	8895
bin	0.0001161984	8759
bin	0.0001170528	8917
bin	0.0001179072	8873
bin	0.0001187616	8722
bin	0.000119616	8846
bin	0.0001204704	8839
bin	0.0001213248	8809
bin	0.0001221792	8746
bin	0.0001230336	8854
bin	0.000123888	8769
bin	0.0001247424	8749
bin	0.0001255968	8868
bin	0.0001264512	8756
bin	0.0001273056	8699
bin	0.00012816	8725
bin	0.0001290144	8825
bin	0.0001298688	8826
bin	0.0001307232	8669
bin	0.0001315776	8494
bin	0.000132432	8415
bin	0.0001332864	8415
bin	0.0001341408	8326
bin	0.0001349952	8422
bin	0.0001358496	8298
bin	0.000136704	8358
bin	0.0001375584	8248
bin	0.0001384128	8194
bin	0.0001392672	8234
bin	0.0001401216	8210
bin	0.000140976	8317
bin	0.0001418304	8140
bin	0.0001426848	8308
bin	0.0001435392	8179
bin	0.0001443936	8172
bin	0.000145248	8122
bin	0.0001461024	8234
bin	0.0001469568	8205
bin	0.0001478112	8218
bin	0.0001486656	8178
bin	0.00014952	8272
bin	0.0001503744	8172
bin	0.0001512288	8210
bin	0.0001520832	8213
bin	0.0001529376	8323
bin	0.000153792	8157
bin	0.0001546464	8108
bin	0.0001555008	8188
bin	0.0001563552	8225
bin	0.0001572096	8153
bin	0.000158064	8104
bin	0.0001589184	8301
bin	0.0001597728	7917
bin	0.0001606272	8050
bin	0.0001614816	8098
bin	0.000162336	8097
bin	0.0001631904	7963
bin	0.0001640448	8102
bin	0.0001648992	7906
bin	0.0001657536	7833
bin	0.000166608	7985
bin	0.0001674624	7769
bin	0.0001683168	7912
bin	0.0001691712	7872
bin	0.0001700256	7951
bin	0.00017088	7888
bin	0.0001717344	7935
bin	0.0001725888	7720
bin	0.0001734432	7947
bin	0.0001742976	7764
bin	0.000175152	7588
bin	0.0001760064	7785
bin	0.0001768608	7659
bin	0.0001777152	7651
bin	0.0001785696	7785
bin	0.000179424	7640
bin	0.0001802784	7651
bin	0.0001811328	7572
bin	0.0001819872	7544
bin	0.0001828416	7556
bin	0.000183696	7576
bin	0.0001845504	7586
bin	0.0001854048	7276
bin	0.0001862592	7599
bin	0.0001871136	7635
bin	0.000187968	7492
bin	0.0001888224	7544
bin	0.0001896768	7547
bin	0.0001905312	7506
bin	0.0001913856	7320
bin	0.00019224	7480
bin	0.0001930944	7393
bin	0.0001939488	7465
bin	0.0001948032	7376
bin	0.0001956576	7394
bin	0.000196512	7442
bin	0.0001973664	7469
bin	0.0001982208	7421
bin	0.0001990752	7397
bin	0.0001999296	7497
bin	0.000200784	7479
bin	0.0002016384	7405
bin	0.0002024928	7358
bin	0.0002033472	7439
bin	0.0002042016	7289
bin	0.000205056	7225
bin	0.0002059104	7431
bin	0.0002067648	7421
bin	0.0002076192	7282
bin	0.0002084736	7291
bin	0.000209328	7353
bin	0.0002101824	7357
bin	0.0002110368	7455
bin	0.0002118912	7492
bin	0.0002127456	7394
bin	0.0002136	7366
bin	0.0002144544	7388
bin	0.0002153088	7468
bin	0.0002161632	7339
bin	0.0002170176	7431
bin	0.000217872	7483
bin	0.0002187264	7444
bin	0.0002195808	7304
bin	0.0002204352	7251
bin	0.0002212896	7355
bin	0.000222144	7105
bin	0.0002229984	7291
bin	0.0002238528	7140
bin	0.0002247072	7112
bin	0.0002255616	7199
bin	0.000226416	7223
bin	0.0002272704	7221
bin	0.0002281248	7155
bin	0.0002289792	6971
bin	0.0002298336	7108
bin	0.000230688	7282
bin	0.0002315424	7274
bin	0.0002323968	7030
bin	0.0002332512	7089
bin	0.0002341056	7042
bin	0.00023496	7167
bin	0.0002358144	7003
bin	0.0002366688	6974
bin	0.0002375232	7185
bin	0.0002383776	7192
bin	0.000239232	7168
bin	0.0002400864	7131
bin	0.0002409408	7118
bin	0.0002417952	7115
bin	0.0002426496	7139
bin	0.000243504	7264
bin	0.0002443584	7065
bin	0.0002452128	7080
bin	0.0002460672	6910
bin	0.0002469216	7135
bin	0.000247776	7101
bin	0.0002486304	7006
bin	0.0002494848	6923
bin	0.0002503392	6980
bin	0.0002511936	6857
bin	0.000252048	6899
bin	0.0002529024	6989
bin	0.0002537568	6860
bin	0.0002546112	6901
bin	0.0002554656	6891
bin	0.00025632	7108
bin	0.0002571744	6766
bin	0.0002580288	6874
bin	0.0002588832	6890
bin	0.0002597376	6825
bin	0.000260592	6875
bin	0.0002614464	6799
bin	0.0002623008	6883
bin	0.0002631552	6864
bin	0.0002640096	6986
bin	0.000264864	6901
bin	0.0002657184	6715
bin	0.0002665728	6800
bin	0.0002674272	6997
bin	0.0002682816	6790
bin	0.000269136	6794
bin	0.0002699904	6843
bin	0.0002708448	6682
bin	0.0002716992	6859
bin	0.0002725536	6775
bin	0.000273408	6837
bin	0.0002742624	6664
bin	0.0002751168	6726
bin	0.0002759712	6579
bin	0.0002768256	6753
bin	0.00027768	6715
bin	0.0002785344	6735
bin	0.0002793888	6681
bin	0.0002802432	6621
bin	0.0002810976	6609
bin	0.000281952	6714
bin	0.0002828064	6640
bin	0.0002836608	6603
bin	0.0002845152	6501
bin	0.0002853696	6521
bin	0.000286224	6563
bin	0.0002870784	6719
bin	0.0002879328	6553
bin	0.0002887872	6605
bin	0.0002896416	6522
bin	0.000290496	6480
bin	0.0002913504	6371
bin	0.0002922048	6622
bin	0.0002930592	6500
bin	0.0002939136	6607
bin	0.000294768	6574
bin	0.0002956224	6643
bin	0.0002964768	6366
bin	0.0002973312	6491
bin	0.0002981856	6628
bin	0.00029904	6643
bin	0.0002998944	6531
bin	0.0003007488	6500
bin	0.0003016032	6437
bin	0.0003024576	6475
bin	0.000303312	6649
bin	0.0003041664	6601
bin	0.0003050208	6539
bin	0.0003058752	6598
bin	0.0003067296	6646
bin	0.000307584	6664
bin	0.0003084384	6657
bin	0.0003092928	6640
bin	0.0003101472	6685
bin	0.0003110016	6718
bin	0.000311856	6752
bin	0.0003127104	6577
bin	0.0003135648	6543
bin	0.0003144192	6633
bin	0.0003152736	6625
bin	0.000316128	6689
bin	0.0003169824	6548
bin	0.0003178368	6592
bin	0.0003186912	6596
bin	0.0003195456	6588
bin	0.0003204	6586
bin	0.0003212544	6698
bin	0.0003221088	6590
bin	0.0003229632	6699
bin	0.0003238176	6684
bin	0.000324672	6711
bin	0.0003255264	6733
bin	0.0003263808	6609
bin	0.0003272352	6630
bin	0.0003280896	6506
bin	0.000328944	6577
bin	0.0003297984	6458
bin	0.0003306528	6464
bin	0.0003315072	6457
bin	0.0003323616	6564
bin	0.000333216	6302
bin	0.0003340704	6482
bin	0.0003349248	6455
bin	0.0003357792	6499
bin	0.0003366336	6294
bin	0.000337488	6363
bin	0.0003383424	6368
bin	0.0003391968	6357
bin	0.0003400512	6197
bin	0.0003409056	6410
bin	0.00034176	6376
bin	0.0003426144	6281
bin	0.0003434688	6414
bin	0.0003443232	6441
bin	0.0003451776	6374
bin	0.000346032	6251
bin	0.0003468864	6319
bin	0.0003477408	6411
bin	0.0003485952	6468
bin	0.0003494496	6468
bin	0.000350304	6491
bin	0.0003511584	6403
bin	0.0003520128	6312
bin	0.0003528672	6513
bin	0.0003537216	6340
bin	0.000354576	6394
bin	0.0003554304	6363
bin	0.0003562848	6456
bin	0.0003571392	6293
bin	0.0003579936	6360
bin	0.000358848	6192
bin	0.0003597024	6239
bin	0.0003605568	6318
bin	0.0003614112	6280
bin	0.0003622656	6370
bin	0.00036312	6289
bin	0.0003639744	6286
bin	0.0003648288	6313
bin	0.0003656832	6325
bin	0.0003665376	6355
bin	0.000367392	6245
bin	0.0003682464	6335
bin	0.0003691008	6240
bin	0.0003699552	6233
bin	0.0003708096	6249
bin	0.000371664	6302
bin	0.0003725184	6260
bin	0.0003733728	6260
bin	0.0003742272	6301
bin	0.0003750816	6368
bin	0.000375936	6296
bin	0.0003767904	6320
bin	0.0003776448	6185
bin	0.0003784992	6353
bin	0.0003793536	6428
bin	0.000380208	6205
bin	0.0003810624	6279
bin	0.0003819168	6204
bin	0.0003827712	6299
bin	0.0003836256	6246
bin	0.00038448	6166
bin	0.0003853344	6142
bin	0.0003861888	6266
bin	0.0003870432	6240
bin	0.0003878976	6259
bin	0.000388752	6166
bin	0.0003896064	6248
bin	0.0003904608	6219
bin	0.0003913152	6162
bin	0.0003921696	6341
bin	0.000393024	6222
bin	0.0003938784	6269
bin	0.0003947328	6302
bin	0.0003955872	6412
bin	0.0003964416	6330
bin	0.000397296	6321
bin	0.0003981504	6387
bin	0.0003990048	6436
bin	0.0003998592	6484
bin	0.0004007136	6311
bin	0.000401568	6258
bin	0.0004024224	6398
bin	0.0004032768	6388
bin	0.0004041312	6307
bin	0.0004049856	6370
bin	0.00040584	6296
bin	0.0004066944	6372
bin	0.0004075488	6271
bin	0.0004084032	6263
bin	0.0004092576	6177
bin	0.000410112	6202
bin	0.0004109664	6128
bin	0.0004118208	6262
bin	0.0004126752	6253
bin	0.0004135296	6269
bin	0.000414384	6187
bin	0.0004152384	6382
bin	0.0004160928	6362
bin	0.0004169472	6230
bin	0.0004178016	6140
bin	0.000418656	6316
bin	0.0004195104	6251
bin	0.0004203648	6315
bin	0.0004212192	6362
bin	0.0004220736	6348
bin	0.000422928	6335
bin	0.0004237824	6417
bin	0.0004246368	6393
bin	0.0004254912	6316
bin	0.0004263456	6375
bin	0.0004272	960287
