version 2
run Uniform-59-20120709-17:50:47-24827
attr alg 3
attr buf 8
attr configname Uniform
attr datetime 20120709-17:50:47
attr delta 1
attr experiment Uniform
attr ext false
attr inifile altro.ini
attr iterationvars "$buf=8, $ext=false, $ofedge=1, $delta=1, $alg=3"
attr iterationvars2 "$buf=8, $ext=false, $ofedge=1, $delta=1, $alg=3, $repetition=0"
attr measurement "$buf=8, $ext=false, $ofedge=1, $delta=1, $alg=3"
attr network Torus3d_bub
attr ofedge 1
attr processid 24827
attr repetition 0
attr replication #0
attr resultdir altro-results
attr runnumber 59
attr seedset 59

scalar . 	alg 	3
scalar . 	buf 	8
scalar . 	delta 	1
scalar . 	ofedge 	1
scalar Torus3d_bub.timer 	#endTime 	0.001921556330355
scalar Torus3d_bub.timer 	#totalHops 	84088341
scalar Torus3d_bub.timer 	#totalPacks 	6291456
scalar Torus3d_bub.timer 	#totalDerouted 	2355657
scalar Torus3d_bub.timer 	#totalOutFlanked 	1873823
scalar Torus3d_bub.timer 	#totalCQRed 	481834
scalar Torus3d_bub.timer 	#LB 	0.000786432
scalar Torus3d_bub.timer 	#ratio 	0.40926825176898
statistic Torus3d_bub.timer 	"Hop Times"
field count 6290304
field mean 4.1509297198574e-05
field stddev 4.1094402007535e-05
field sum 261.10609820538
field sqrsum 0.021461079044265
field min 3.79428571e-07
field max 0.001429257997327
bin	-INF	0
bin	0	0
bin	7.12e-08	0
bin	1.424e-07	0
bin	2.136e-07	0
bin	2.848e-07	0
bin	3.56e-07	250
bin	4.272e-07	938
bin	4.984e-07	1727
bin	5.696e-07	2626
bin	6.408e-07	3774
bin	7.12e-07	5111
bin	7.832e-07	6211
bin	8.544e-07	7611
bin	9.256e-07	9050
bin	9.968e-07	10326
bin	1.068e-06	11813
bin	1.1392e-06	13605
bin	1.2104e-06	15469
bin	1.2816e-06	17359
bin	1.3528e-06	19747
bin	1.424e-06	21947
bin	1.4952e-06	24402
bin	1.5664e-06	26248
bin	1.6376e-06	28461
bin	1.7088e-06	29475
bin	1.78e-06	30598
bin	1.8512e-06	30439
bin	1.9224e-06	30093
bin	1.9936e-06	29471
bin	2.0648e-06	28728
bin	2.136e-06	27541
bin	2.2072e-06	26202
bin	2.2784e-06	25158
bin	2.3496e-06	23819
bin	2.4208e-06	22594
bin	2.492e-06	21697
bin	2.5632e-06	20407
bin	2.6344e-06	19328
bin	2.7056e-06	18044
bin	2.7768e-06	17311
bin	2.848e-06	16253
bin	2.9192e-06	15442
bin	2.9904e-06	14870
bin	3.0616e-06	14138
bin	3.1328e-06	13505
bin	3.204e-06	13063
bin	3.2752e-06	12608
bin	3.3464e-06	12087
bin	3.4176e-06	11642
bin	3.4888e-06	11298
bin	3.56e-06	10963
bin	3.6312e-06	10453
bin	3.7024e-06	10298
bin	3.7736e-06	9935
bin	3.8448e-06	9493
bin	3.916e-06	9423
bin	3.9872e-06	9076
bin	4.0584e-06	8897
bin	4.1296e-06	8721
bin	4.2008e-06	8454
bin	4.272e-06	8141
bin	4.3432e-06	8057
bin	4.4144e-06	8037
bin	4.4856e-06	7695
bin	4.5568e-06	7618
bin	4.628e-06	7484
bin	4.6992e-06	7401
bin	4.7704e-06	7303
bin	4.8416e-06	7270
bin	4.9128e-06	7256
bin	4.984e-06	7071
bin	5.0552e-06	7012
bin	5.1264e-06	7016
bin	5.1976e-06	6957
bin	5.2688e-06	6879
bin	5.34e-06	6924
bin	5.4112e-06	6866
bin	5.4824e-06	6806
bin	5.5536e-06	6719
bin	5.6248e-06	6645
bin	5.696e-06	6626
bin	5.7672e-06	6473
bin	5.8384e-06	6412
bin	5.9096e-06	6592
bin	5.9808e-06	6379
bin	6.052e-06	6358
bin	6.1232e-06	6461
bin	6.1944e-06	6322
bin	6.2656e-06	6381
bin	6.3368e-06	6512
bin	6.408e-06	6405
bin	6.4792e-06	6323
bin	6.5504e-06	6344
bin	6.6216e-06	6204
bin	6.6928e-06	6400
bin	6.764e-06	6196
bin	6.8352e-06	6181
bin	6.9064e-06	6132
bin	6.9776e-06	6017
bin	7.0488e-06	6157
bin	7.12e-06	6041
bin	7.1912e-06	6141
bin	7.2624e-06	6049
bin	7.3336e-06	6192
bin	7.4048e-06	5994
bin	7.476e-06	6060
bin	7.5472e-06	6117
bin	7.6184e-06	6129
bin	7.6896e-06	5942
bin	7.7608e-06	6009
bin	7.832e-06	5917
bin	7.9032e-06	6011
bin	7.9744e-06	6037
bin	8.0456e-06	6007
bin	8.1168e-06	5956
bin	8.188e-06	6085
bin	8.2592e-06	5990
bin	8.3304e-06	5959
bin	8.4016e-06	5882
bin	8.4728e-06	5923
bin	8.544e-06	5961
bin	8.6152e-06	5874
bin	8.6864e-06	5818
bin	8.7576e-06	5888
bin	8.8288e-06	5836
bin	8.9e-06	5894
bin	8.9712e-06	5806
bin	9.0424e-06	5918
bin	9.1136e-06	5865
bin	9.1848e-06	5688
bin	9.256e-06	5912
bin	9.3272e-06	5769
bin	9.3984e-06	5765
bin	9.4696e-06	5794
bin	9.5408e-06	5711
bin	9.612e-06	5894
bin	9.6832e-06	5749
bin	9.7544e-06	5851
bin	9.8256e-06	5832
bin	9.8968e-06	5883
bin	9.968e-06	5746
bin	1.00392e-05	5857
bin	1.01104e-05	5692
bin	1.01816e-05	5718
bin	1.02528e-05	5750
bin	1.0324e-05	5727
bin	1.03952e-05	5591
bin	1.04664e-05	5717
bin	1.05376e-05	5719
bin	1.06088e-05	5786
bin	1.068e-05	5756
bin	1.07512e-05	5729
bin	1.08224e-05	5698
bin	1.08936e-05	5655
bin	1.09648e-05	5642
bin	1.1036e-05	5678
bin	1.11072e-05	5714
bin	1.11784e-05	5600
bin	1.12496e-05	5681
bin	1.13208e-05	5615
bin	1.1392e-05	5566
bin	1.14632e-05	5497
bin	1.15344e-05	5597
bin	1.16056e-05	5592
bin	1.16768e-05	5605
bin	1.1748e-05	5587
bin	1.18192e-05	5655
bin	1.18904e-05	5577
bin	1.19616e-05	5615
bin	1.20328e-05	5645
bin	1.2104e-05	5426
bin	1.21752e-05	5518
bin	1.22464e-05	5548
bin	1.23176e-05	5611
bin	1.23888e-05	5557
bin	1.246e-05	5549
bin	1.25312e-05	5486
bin	1.26024e-05	5447
bin	1.26736e-05	5551
bin	1.27448e-05	5597
bin	1.2816e-05	5449
bin	1.28872e-05	5428
bin	1.29584e-05	5499
bin	1.30296e-05	5348
bin	1.31008e-05	5550
bin	1.3172e-05	5457
bin	1.32432e-05	5338
bin	1.33144e-05	5488
bin	1.33856e-05	5533
bin	1.34568e-05	5596
bin	1.3528e-05	5378
bin	1.35992e-05	5530
bin	1.36704e-05	5477
bin	1.37416e-05	5473
bin	1.38128e-05	5627
bin	1.3884e-05	5454
bin	1.39552e-05	5423
bin	1.40264e-05	5527
bin	1.40976e-05	5474
bin	1.41688e-05	5439
bin	1.424e-05	5402
bin	1.43112e-05	5388
bin	1.43824e-05	5446
bin	1.44536e-05	5531
bin	1.45248e-05	5299
bin	1.4596e-05	5447
bin	1.46672e-05	5366
bin	1.47384e-05	5419
bin	1.48096e-05	5373
bin	1.48808e-05	5384
bin	1.4952e-05	5408
bin	1.50232e-05	5353
bin	1.50944e-05	5427
bin	1.51656e-05	5427
bin	1.52368e-05	5293
bin	1.5308e-05	5248
bin	1.53792e-05	5259
bin	1.54504e-05	5198
bin	1.55216e-05	5146
bin	1.55928e-05	5380
bin	1.5664e-05	5340
bin	1.57352e-05	5328
bin	1.58064e-05	5307
bin	1.58776e-05	5350
bin	1.59488e-05	5360
bin	1.602e-05	5314
bin	1.60912e-05	5292
bin	1.61624e-05	5380
bin	1.62336e-05	5311
bin	1.63048e-05	5323
bin	1.6376e-05	5507
bin	1.64472e-05	5355
bin	1.65184e-05	5256
bin	1.65896e-05	5394
bin	1.66608e-05	5428
bin	1.6732e-05	5364
bin	1.68032e-05	5321
bin	1.68744e-05	5429
bin	1.69456e-05	5330
bin	1.70168e-05	5347
bin	1.7088e-05	5354
bin	1.71592e-05	5349
bin	1.72304e-05	5200
bin	1.73016e-05	5346
bin	1.73728e-05	5373
bin	1.7444e-05	5497
bin	1.75152e-05	5458
bin	1.75864e-05	5423
bin	1.76576e-05	5357
bin	1.77288e-05	5453
bin	1.78e-05	5361
bin	1.78712e-05	5303
bin	1.79424e-05	5433
bin	1.80136e-05	5273
bin	1.80848e-05	5285
bin	1.8156e-05	5249
bin	1.82272e-05	5270
bin	1.82984e-05	5459
bin	1.83696e-05	5319
bin	1.84408e-05	5385
bin	1.8512e-05	5433
bin	1.85832e-05	5344
bin	1.86544e-05	5319
bin	1.87256e-05	5362
bin	1.87968e-05	5329
bin	1.8868e-05	5360
bin	1.89392e-05	5464
bin	1.90104e-05	5323
bin	1.90816e-05	5364
bin	1.91528e-05	5279
bin	1.9224e-05	5297
bin	1.92952e-05	5342
bin	1.93664e-05	5380
bin	1.94376e-05	5185
bin	1.95088e-05	5281
bin	1.958e-05	5259
bin	1.96512e-05	5351
bin	1.97224e-05	5265
bin	1.97936e-05	5332
bin	1.98648e-05	5220
bin	1.9936e-05	5299
bin	2.00072e-05	5271
bin	2.00784e-05	5239
bin	2.01496e-05	5202
bin	2.02208e-05	5352
bin	2.0292e-05	5241
bin	2.03632e-05	5226
bin	2.04344e-05	5264
bin	2.05056e-05	5329
bin	2.05768e-05	5264
bin	2.0648e-05	5243
bin	2.07192e-05	5290
bin	2.07904e-05	5266
bin	2.08616e-05	5119
bin	2.09328e-05	5260
bin	2.1004e-05	5256
bin	2.10752e-05	5283
bin	2.11464e-05	5285
bin	2.12176e-05	5238
bin	2.12888e-05	5177
bin	2.136e-05	5171
bin	2.14312e-05	5105
bin	2.15024e-05	5381
bin	2.15736e-05	5166
bin	2.16448e-05	5123
bin	2.1716e-05	5190
bin	2.17872e-05	5249
bin	2.18584e-05	5243
bin	2.19296e-05	5270
bin	2.20008e-05	5306
bin	2.2072e-05	5205
bin	2.21432e-05	5305
bin	2.22144e-05	5209
bin	2.22856e-05	5265
bin	2.23568e-05	5338
bin	2.2428e-05	5222
bin	2.24992e-05	5125
bin	2.25704e-05	5378
bin	2.26416e-05	5280
bin	2.27128e-05	5281
bin	2.2784e-05	5289
bin	2.28552e-05	5235
bin	2.29264e-05	5387
bin	2.29976e-05	5083
bin	2.30688e-05	5242
bin	2.314e-05	5158
bin	2.32112e-05	5158
bin	2.32824e-05	5214
bin	2.33536e-05	5335
bin	2.34248e-05	5502
bin	2.3496e-05	5298
bin	2.35672e-05	5195
bin	2.36384e-05	5209
bin	2.37096e-05	5244
bin	2.37808e-05	5298
bin	2.3852e-05	5246
bin	2.39232e-05	5210
bin	2.39944e-05	5218
bin	2.40656e-05	5114
bin	2.41368e-05	5167
bin	2.4208e-05	5188
bin	2.42792e-05	5185
bin	2.43504e-05	5200
bin	2.44216e-05	5187
bin	2.44928e-05	5161
bin	2.4564e-05	5017
bin	2.46352e-05	5060
bin	2.47064e-05	5036
bin	2.47776e-05	5070
bin	2.48488e-05	5091
bin	2.492e-05	5062
bin	2.49912e-05	4988
bin	2.50624e-05	4998
bin	2.51336e-05	5002
bin	2.52048e-05	5070
bin	2.5276e-05	5210
bin	2.53472e-05	5112
bin	2.54184e-05	5092
bin	2.54896e-05	5081
bin	2.55608e-05	5174
bin	2.5632e-05	5152
bin	2.57032e-05	5039
bin	2.57744e-05	5205
bin	2.58456e-05	5129
bin	2.59168e-05	5059
bin	2.5988e-05	4961
bin	2.60592e-05	5103
bin	2.61304e-05	4999
bin	2.62016e-05	5035
bin	2.62728e-05	5039
bin	2.6344e-05	4972
bin	2.64152e-05	4913
bin	2.64864e-05	5008
bin	2.65576e-05	4967
bin	2.66288e-05	5041
bin	2.67e-05	5033
bin	2.67712e-05	4928
bin	2.68424e-05	5032
bin	2.69136e-05	5006
bin	2.69848e-05	5009
bin	2.7056e-05	4976
bin	2.71272e-05	5079
bin	2.71984e-05	5009
bin	2.72696e-05	5056
bin	2.73408e-05	4900
bin	2.7412e-05	4975
bin	2.74832e-05	5028
bin	2.75544e-05	4918
bin	2.76256e-05	5010
bin	2.76968e-05	5074
bin	2.7768e-05	5003
bin	2.78392e-05	5010
bin	2.79104e-05	4933
bin	2.79816e-05	4934
bin	2.80528e-05	4757
bin	2.8124e-05	5015
bin	2.81952e-05	5020
bin	2.82664e-05	5052
bin	2.83376e-05	5074
bin	2.84088e-05	5092
bin	2.848e-05	5018
bin	2.85512e-05	4997
bin	2.86224e-05	5008
bin	2.86936e-05	4900
bin	2.87648e-05	4861
bin	2.8836e-05	4876
bin	2.89072e-05	4916
bin	2.89784e-05	4954
bin	2.90496e-05	4948
bin	2.91208e-05	4745
bin	2.9192e-05	5016
bin	2.92632e-05	5002
bin	2.93344e-05	4928
bin	2.94056e-05	4888
bin	2.94768e-05	4917
bin	2.9548e-05	5030
bin	2.96192e-05	4932
bin	2.96904e-05	4863
bin	2.97616e-05	4937
bin	2.98328e-05	4870
bin	2.9904e-05	4908
bin	2.99752e-05	4939
bin	3.00464e-05	4827
bin	3.01176e-05	4800
bin	3.01888e-05	4964
bin	3.026e-05	4850
bin	3.03312e-05	4864
bin	3.04024e-05	5023
bin	3.04736e-05	4907
bin	3.05448e-05	4889
bin	3.0616e-05	5008
bin	3.06872e-05	4968
bin	3.07584e-05	4952
bin	3.08296e-05	4986
bin	3.09008e-05	4949
bin	3.0972e-05	4886
bin	3.10432e-05	4879
bin	3.11144e-05	4875
bin	3.11856e-05	4881
bin	3.12568e-05	4886
bin	3.1328e-05	4772
bin	3.13992e-05	4883
bin	3.14704e-05	4751
bin	3.15416e-05	4793
bin	3.16128e-05	4856
bin	3.1684e-05	4903
bin	3.17552e-05	4966
bin	3.18264e-05	4804
bin	3.18976e-05	4817
bin	3.19688e-05	4818
bin	3.204e-05	4799
bin	3.21112e-05	4909
bin	3.21824e-05	4938
bin	3.22536e-05	4899
bin	3.23248e-05	4938
bin	3.2396e-05	4880
bin	3.24672e-05	4826
bin	3.25384e-05	4937
bin	3.26096e-05	4955
bin	3.26808e-05	4984
bin	3.2752e-05	5067
bin	3.28232e-05	4804
bin	3.28944e-05	4993
bin	3.29656e-05	4845
bin	3.30368e-05	4748
bin	3.3108e-05	4738
bin	3.31792e-05	4856
bin	3.32504e-05	4799
bin	3.33216e-05	4822
bin	3.33928e-05	4918
bin	3.3464e-05	4807
bin	3.35352e-05	4799
bin	3.36064e-05	4774
bin	3.36776e-05	4790
bin	3.37488e-05	4929
bin	3.382e-05	4850
bin	3.38912e-05	4810
bin	3.39624e-05	4839
bin	3.40336e-05	4795
bin	3.41048e-05	4834
bin	3.4176e-05	4845
bin	3.42472e-05	4784
bin	3.43184e-05	4920
bin	3.43896e-05	4725
bin	3.44608e-05	4840
bin	3.4532e-05	4743
bin	3.46032e-05	4828
bin	3.46744e-05	4729
bin	3.47456e-05	4634
bin	3.48168e-05	4893
bin	3.4888e-05	4846
bin	3.49592e-05	4784
bin	3.50304e-05	4748
bin	3.51016e-05	4676
bin	3.51728e-05	4788
bin	3.5244e-05	4739
bin	3.53152e-05	4864
bin	3.53864e-05	4796
bin	3.54576e-05	4797
bin	3.55288e-05	4701
bin	3.56e-05	3056254
statistic Torus3d_bub.timer 	"Life Times"
field count 6291456
field mean 0.00048813721697483
field stddev 0.00034476936307247
field sum 3071.0938225596
field sqrsum 2.2469547387746
field min 1.64e-07
field max 0.001688588999998
bin	-INF	0
bin	0	20
bin	8.544e-07	258
bin	1.7088e-06	863
bin	2.5632e-06	1665
bin	3.4176e-06	2401
bin	4.272e-06	3346
bin	5.1264e-06	4175
bin	5.9808e-06	5051
bin	6.8352e-06	6133
bin	7.6896e-06	7289
bin	8.544e-06	8443
bin	9.3984e-06	9889
bin	1.02528e-05	11016
bin	1.11072e-05	11767
bin	1.19616e-05	12767
bin	1.2816e-05	13838
bin	1.36704e-05	14480
bin	1.45248e-05	15604
bin	1.53792e-05	16681
bin	1.62336e-05	17708
bin	1.7088e-05	18713
bin	1.79424e-05	19883
bin	1.87968e-05	21068
bin	1.96512e-05	22392
bin	2.05056e-05	23307
bin	2.136e-05	24528
bin	2.22144e-05	25411
bin	2.30688e-05	26746
bin	2.39232e-05	27671
bin	2.47776e-05	28409
bin	2.5632e-05	28168
bin	2.64864e-05	27225
bin	2.73408e-05	26025
bin	2.81952e-05	24663
bin	2.90496e-05	23537
bin	2.9904e-05	21668
bin	3.07584e-05	20190
bin	3.16128e-05	18966
bin	3.24672e-05	17531
bin	3.33216e-05	15864
bin	3.4176e-05	14875
bin	3.50304e-05	13711
bin	3.58848e-05	12672
bin	3.67392e-05	11891
bin	3.75936e-05	11351
bin	3.8448e-05	10916
bin	3.93024e-05	10361
bin	4.01568e-05	10117
bin	4.10112e-05	9938
bin	4.18656e-05	9722
bin	4.272e-05	9391
bin	4.35744e-05	9344
bin	4.44288e-05	9028
bin	4.52832e-05	9069
bin	4.61376e-05	9069
bin	4.6992e-05	8720
bin	4.78464e-05	8784
bin	4.87008e-05	8875
bin	4.95552e-05	8865
bin	5.04096e-05	8763
bin	5.1264e-05	8583
bin	5.21184e-05	8400
bin	5.29728e-05	8217
bin	5.38272e-05	7861
bin	5.46816e-05	7566
bin	5.5536e-05	7431
bin	5.63904e-05	7131
bin	5.72448e-05	6839
bin	5.80992e-05	6724
bin	5.89536e-05	6590
bin	5.9808e-05	6336
bin	6.06624e-05	6287
bin	6.15168e-05	6093
bin	6.23712e-05	6052
bin	6.32256e-05	6077
bin	6.408e-05	5925
bin	6.49344e-05	5869
bin	6.57888e-05	5807
bin	6.66432e-05	5957
bin	6.74976e-05	5900
bin	6.8352e-05	5920
bin	6.92064e-05	5753
bin	7.00608e-05	5839
bin	7.09152e-05	5915
bin	7.17696e-05	5733
bin	7.2624e-05	5732
bin	7.34784e-05	5835
bin	7.43328e-05	5840
bin	7.51872e-05	5822
bin	7.60416e-05	5821
bin	7.6896e-05	5808
bin	7.77504e-05	5753
bin	7.86048e-05	5683
bin	7.94592e-05	5519
bin	8.03136e-05	5540
bin	8.1168e-05	5408
bin	8.20224e-05	5470
bin	8.28768e-05	5391
bin	8.37312e-05	5341
bin	8.45856e-05	5185
bin	8.544e-05	5318
bin	8.62944e-05	5250
bin	8.71488e-05	5263
bin	8.80032e-05	5188
bin	8.88576e-05	5250
bin	8.9712e-05	5192
bin	9.05664e-05	5326
bin	9.14208e-05	5227
bin	9.22752e-05	5248
bin	9.31296e-05	5251
bin	9.3984e-05	5182
bin	9.48384e-05	5286
bin	9.56928e-05	5165
bin	9.65472e-05	5192
bin	9.74016e-05	5134
bin	9.8256e-05	5196
bin	9.91104e-05	5183
bin	9.99648e-05	5218
bin	0.0001008192	5352
bin	0.0001016736	5357
bin	0.000102528	5324
bin	0.0001033824	5395
bin	0.0001042368	5213
bin	0.0001050912	5246
bin	0.0001059456	5242
bin	0.0001068	5063
bin	0.0001076544	5336
bin	0.0001085088	5175
bin	0.0001093632	5221
bin	0.0001102176	5188
bin	0.000111072	5240
bin	0.0001119264	5208
bin	0.0001127808	5093
bin	0.0001136352	5190
bin	0.0001144896	5190
bin	0.000115344	5179
bin	0.0001161984	5225
bin	0.0001170528	5264
bin	0.0001179072	5164
bin	0.0001187616	5162
bin	0.000119616	5125
bin	0.0001204704	5188
bin	0.0001213248	5204
bin	0.0001221792	5145
bin	0.0001230336	5117
bin	0.000123888	5217
bin	0.0001247424	5138
bin	0.0001255968	5226
bin	0.0001264512	5052
bin	0.0001273056	5270
bin	0.00012816	5060
bin	0.0001290144	4984
bin	0.0001298688	5051
bin	0.0001307232	5112
bin	0.0001315776	5152
bin	0.000132432	5023
bin	0.0001332864	5089
bin	0.0001341408	5086
bin	0.0001349952	4933
bin	0.0001358496	5076
bin	0.000136704	5126
bin	0.0001375584	4978
bin	0.0001384128	4964
bin	0.0001392672	4946
bin	0.0001401216	5056
bin	0.000140976	5001
bin	0.0001418304	5040
bin	0.0001426848	4953
bin	0.0001435392	4944
bin	0.0001443936	4954
bin	0.000145248	4961
bin	0.0001461024	4869
bin	0.0001469568	4972
bin	0.0001478112	4948
bin	0.0001486656	5045
bin	0.00014952	5129
bin	0.0001503744	4991
bin	0.0001512288	4985
bin	0.0001520832	5005
bin	0.0001529376	5009
bin	0.000153792	4990
bin	0.0001546464	4942
bin	0.0001555008	4962
bin	0.0001563552	5014
bin	0.0001572096	4992
bin	0.000158064	5018
bin	0.0001589184	4971
bin	0.0001597728	4944
bin	0.0001606272	4946
bin	0.0001614816	4913
bin	0.000162336	4916
bin	0.0001631904	4988
bin	0.0001640448	4896
bin	0.0001648992	4907
bin	0.0001657536	5026
bin	0.000166608	4976
bin	0.0001674624	5064
bin	0.0001683168	4969
bin	0.0001691712	4959
bin	0.0001700256	4805
bin	0.00017088	4850
bin	0.0001717344	4807
bin	0.0001725888	4958
bin	0.0001734432	5068
bin	0.0001742976	4927
bin	0.000175152	4873
bin	0.0001760064	4885
bin	0.0001768608	5012
bin	0.0001777152	4966
bin	0.0001785696	4917
bin	0.000179424	4914
bin	0.0001802784	4922
bin	0.0001811328	4881
bin	0.0001819872	4914
bin	0.0001828416	4922
bin	0.000183696	4992
bin	0.0001845504	4933
bin	0.0001854048	4894
bin	0.0001862592	4858
bin	0.0001871136	4842
bin	0.000187968	4884
bin	0.0001888224	4858
bin	0.0001896768	4904
bin	0.0001905312	4849
bin	0.0001913856	4917
bin	0.00019224	4802
bin	0.0001930944	4967
bin	0.0001939488	4773
bin	0.0001948032	4883
bin	0.0001956576	4888
bin	0.000196512	4989
bin	0.0001973664	4874
bin	0.0001982208	4823
bin	0.0001990752	4780
bin	0.0001999296	4917
bin	0.000200784	4901
bin	0.0002016384	4889
bin	0.0002024928	4878
bin	0.0002033472	4787
bin	0.0002042016	4814
bin	0.000205056	4807
bin	0.0002059104	4817
bin	0.0002067648	4845
bin	0.0002076192	4889
bin	0.0002084736	4786
bin	0.000209328	4831
bin	0.0002101824	4834
bin	0.0002110368	4806
bin	0.0002118912	4739
bin	0.0002127456	4815
bin	0.0002136	4788
bin	0.0002144544	4706
bin	0.0002153088	4883
bin	0.0002161632	4763
bin	0.0002170176	4736
bin	0.000217872	4741
bin	0.0002187264	4796
bin	0.0002195808	4705
bin	0.0002204352	4747
bin	0.0002212896	4849
bin	0.000222144	4807
bin	0.0002229984	4766
bin	0.0002238528	4774
bin	0.0002247072	4738
bin	0.0002255616	4730
bin	0.000226416	4724
bin	0.0002272704	4771
bin	0.0002281248	4644
bin	0.0002289792	4706
bin	0.0002298336	4727
bin	0.000230688	4709
bin	0.0002315424	4757
bin	0.0002323968	4505
bin	0.0002332512	4705
bin	0.0002341056	4818
bin	0.00023496	4684
bin	0.0002358144	4598
bin	0.0002366688	4740
bin	0.0002375232	4660
bin	0.0002383776	4590
bin	0.000239232	4681
bin	0.0002400864	4567
bin	0.0002409408	4690
bin	0.0002417952	4684
bin	0.0002426496	4621
bin	0.000243504	4581
bin	0.0002443584	4676
bin	0.0002452128	4597
bin	0.0002460672	4719
bin	0.0002469216	4700
bin	0.000247776	4656
bin	0.0002486304	4680
bin	0.0002494848	4672
bin	0.0002503392	4690
bin	0.0002511936	4537
bin	0.000252048	4651
bin	0.0002529024	4665
bin	0.0002537568	4684
bin	0.0002546112	4603
bin	0.0002554656	4710
bin	0.00025632	4759
bin	0.0002571744	4689
bin	0.0002580288	4717
bin	0.0002588832	4779
bin	0.0002597376	4596
bin	0.000260592	4625
bin	0.0002614464	4659
bin	0.0002623008	4652
bin	0.0002631552	4670
bin	0.0002640096	4585
bin	0.000264864	4707
bin	0.0002657184	4778
bin	0.0002665728	4619
bin	0.0002674272	4747
bin	0.0002682816	4765
bin	0.000269136	4703
bin	0.0002699904	4613
bin	0.0002708448	4623
bin	0.0002716992	4731
bin	0.0002725536	4755
bin	0.000273408	4740
bin	0.0002742624	4837
bin	0.0002751168	4805
bin	0.0002759712	4611
bin	0.0002768256	4721
bin	0.00027768	4676
bin	0.0002785344	4893
bin	0.0002793888	4622
bin	0.0002802432	4704
bin	0.0002810976	4760
bin	0.000281952	4647
bin	0.0002828064	4534
bin	0.0002836608	4612
bin	0.0002845152	4710
bin	0.0002853696	4723
bin	0.000286224	4667
bin	0.0002870784	4850
bin	0.0002879328	4648
bin	0.0002887872	4674
bin	0.0002896416	4561
bin	0.000290496	4624
bin	0.0002913504	4590
bin	0.0002922048	4545
bin	0.0002930592	4669
bin	0.0002939136	4839
bin	0.000294768	4828
bin	0.0002956224	4736
bin	0.0002964768	4802
bin	0.0002973312	4686
bin	0.0002981856	4662
bin	0.00029904	4739
bin	0.0002998944	4661
bin	0.0003007488	4508
bin	0.0003016032	4742
bin	0.0003024576	4645
bin	0.000303312	4734
bin	0.0003041664	4794
bin	0.0003050208	4589
bin	0.0003058752	4620
bin	0.0003067296	4784
bin	0.000307584	4684
bin	0.0003084384	4561
bin	0.0003092928	4647
bin	0.0003101472	4553
bin	0.0003110016	4370
bin	0.000311856	4576
bin	0.0003127104	4523
bin	0.0003135648	4643
bin	0.0003144192	4623
bin	0.0003152736	4625
bin	0.000316128	4594
bin	0.0003169824	4566
bin	0.0003178368	4588
bin	0.0003186912	4555
bin	0.0003195456	4510
bin	0.0003204	4680
bin	0.0003212544	4678
bin	0.0003221088	4518
bin	0.0003229632	4460
bin	0.0003238176	4478
bin	0.000324672	4554
bin	0.0003255264	4687
bin	0.0003263808	4551
bin	0.0003272352	4417
bin	0.0003280896	4583
bin	0.000328944	4427
bin	0.0003297984	4514
bin	0.0003306528	4561
bin	0.0003315072	4558
bin	0.0003323616	4548
bin	0.000333216	4777
bin	0.0003340704	4523
bin	0.0003349248	4470
bin	0.0003357792	4502
bin	0.0003366336	4416
bin	0.000337488	4524
bin	0.0003383424	4515
bin	0.0003391968	4530
bin	0.0003400512	4496
bin	0.0003409056	4436
bin	0.00034176	4459
bin	0.0003426144	4631
bin	0.0003434688	4504
bin	0.0003443232	4566
bin	0.0003451776	4525
bin	0.000346032	4504
bin	0.0003468864	4453
bin	0.0003477408	4445
bin	0.0003485952	4367
bin	0.0003494496	4356
bin	0.000350304	4434
bin	0.0003511584	4402
bin	0.0003520128	4400
bin	0.0003528672	4528
bin	0.0003537216	4403
bin	0.000354576	4436
bin	0.0003554304	4441
bin	0.0003562848	4345
bin	0.0003571392	4428
bin	0.0003579936	4416
bin	0.000358848	4459
bin	0.0003597024	4350
bin	0.0003605568	4401
bin	0.0003614112	4429
bin	0.0003622656	4370
bin	0.00036312	4377
bin	0.0003639744	4337
bin	0.0003648288	4399
bin	0.0003656832	4535
bin	0.0003665376	4427
bin	0.000367392	4494
bin	0.0003682464	4523
bin	0.0003691008	4463
bin	0.0003699552	4341
bin	0.0003708096	4473
bin	0.000371664	4450
bin	0.0003725184	4370
bin	0.0003733728	4465
bin	0.0003742272	4408
bin	0.0003750816	4399
bin	0.000375936	4286
bin	0.0003767904	4463
bin	0.0003776448	4333
bin	0.0003784992	4379
bin	0.0003793536	4351
bin	0.000380208	4448
bin	0.0003810624	4432
bin	0.0003819168	4378
bin	0.0003827712	4273
bin	0.0003836256	4322
bin	0.00038448	4367
bin	0.0003853344	4383
bin	0.0003861888	4328
bin	0.0003870432	4376
bin	0.0003878976	4404
bin	0.000388752	4457
bin	0.0003896064	4424
bin	0.0003904608	4463
bin	0.0003913152	4349
bin	0.0003921696	4406
bin	0.000393024	4341
bin	0.0003938784	4412
bin	0.0003947328	4340
bin	0.0003955872	4353
bin	0.0003964416	4306
bin	0.000397296	4450
bin	0.0003981504	4478
bin	0.0003990048	4430
bin	0.0003998592	4499
bin	0.0004007136	4360
bin	0.000401568	4339
bin	0.0004024224	4347
bin	0.0004032768	4469
bin	0.0004041312	4423
bin	0.0004049856	4487
bin	0.00040584	4417
bin	0.0004066944	4346
bin	0.0004075488	4395
bin	0.0004084032	4408
bin	0.0004092576	4389
bin	0.000410112	4353
bin	0.0004109664	4496
bin	0.0004118208	4425
bin	0.0004126752	4349
bin	0.0004135296	4371
bin	0.000414384	4438
bin	0.0004152384	4226
bin	0.0004160928	4243
bin	0.0004169472	4347
bin	0.0004178016	4341
bin	0.000418656	4154
bin	0.0004195104	4246
bin	0.0004203648	4245
bin	0.0004212192	4169
bin	0.0004220736	4191
bin	0.000422928	4157
bin	0.0004237824	4317
bin	0.0004246368	4272
bin	0.0004254912	4256
bin	0.0004263456	4299
bin	0.0004272	3319848
